*Heading
** Job name: bullet-impact Model name: Model-1
** Generated by: Abaqus/CAE Learning Edition 2023
** Example for HAKAI-v0.0.0
*Preprint, echo=NO, model=NO, history=NO, contact=NO
**
** PARTS
**
*Part, name=bullet
*Node
1,   -5.672033e-04,   2.333333e-02,   2.288116e-03
     2,   1.612761e-03,   2.333333e-02,   1.576567e-03
     3,   4.045085e-03,   2.333333e-02,   2.938926e-03
     4,   1.545085e-03,   2.333333e-02,   4.755283e-03
     5,   -5.672033e-04,   2.000000e-02,   2.288116e-03
     6,   1.612761e-03,   2.000000e-02,   1.576567e-03
     7,   4.045085e-03,   2.000000e-02,   2.938926e-03
     8,   1.545085e-03,   2.000000e-02,   4.755283e-03
     9,   5.227790e-04,   2.333333e-02,   1.932342e-03
     10,   2.828923e-03,   2.333333e-02,   2.257747e-03
     11,   2.795085e-03,   2.333333e-02,   3.847104e-03
     12,   4.889408e-04,   2.333333e-02,   3.521699e-03
     13,   1.658932e-03,   2.333333e-02,   2.889723e-03
     14,   -5.672033e-04,   2.166667e-02,   2.288116e-03
     15,   1.612761e-03,   2.166667e-02,   1.576567e-03
     16,   4.045085e-03,   2.166667e-02,   2.938926e-03
     17,   1.545085e-03,   2.166667e-02,   4.755283e-03
     18,   5.227790e-04,   2.166667e-02,   1.932342e-03
     19,   2.828923e-03,   2.166667e-02,   2.257747e-03
     20,   2.795085e-03,   2.166667e-02,   3.847104e-03
** ... 541 like lines cut
*Element, type=C3D8R
1, 1, 9, 13, 12, 14, 18, 22, 21
     2, 9, 2, 10, 13, 18, 15, 19, 22
     3, 13, 10, 3, 11, 22, 19, 16, 20
     4, 12, 13, 11, 4, 21, 22, 20, 17
     5, 14, 18, 22, 21, 5, 23, 27, 26
     6, 18, 15, 19, 22, 23, 6, 24, 27
     7, 22, 19, 16, 20, 27, 24, 7, 25
     8, 21, 22, 20, 17, 26, 27, 25, 8
     9, 28, 32, 35, 34, 36, 38, 41, 40
     10, 32, 29, 33, 35, 38, 37, 39, 41
     11, 35, 33, 1, 12, 41, 39, 14, 21
     12, 34, 35, 12, 4, 40, 41, 21, 17
     13, 36, 38, 41, 40, 30, 42, 45, 44
     14, 38, 37, 39, 41, 42, 31, 43, 45
     15, 41, 39, 14, 21, 45, 43, 5, 26
     16, 40, 41, 21, 17, 44, 45, 26, 8
     17, 1, 50, 53, 9, 14, 56, 59, 18
     18, 50, 46, 51, 53, 56, 54, 57, 59
     19, 53, 51, 47, 52, 59, 57, 55, 58
     20, 9, 53, 52, 2, 18, 59, 58, 15
** ... 380 like lines cut
*Nset, nset=Set-4, generate
  1,  561,   1
*Elset, elset=Set-4, generate
  1,  400,   1
** Section: Lead
*Solid Section, elset=Set-4, material=lead
,
*End Part
**  
*Part, name=plate
*Node
1,   -3.689976e-03,   1.624430e-02,   2.000000e-03
     2,   -5.970729e-03,   1.705254e-02,   2.000000e-03
     3,   -5.178504e-03,   2.079174e-02,   2.000000e-03
     4,   -1.390326e-03,   1.827878e-02,   2.000000e-03
     5,   -3.689976e-03,   1.624430e-02,   9.499490e-11
     6,   -5.970729e-03,   1.705254e-02,   9.499490e-11
     7,   -5.178504e-03,   2.079174e-02,   9.499490e-11
     8,   -1.390326e-03,   1.827878e-02,   9.499490e-11
     9,   -4.830353e-03,   1.664842e-02,   2.000000e-03
     10,   -5.574617e-03,   1.892214e-02,   2.000000e-03
     11,   -3.284415e-03,   1.953526e-02,   2.000000e-03
     12,   -2.540151e-03,   1.726154e-02,   2.000000e-03
     13,   -4.057384e-03,   1.809184e-02,   2.000000e-03
     14,   -3.689976e-03,   1.624430e-02,   1.000000e-03
     15,   -5.970729e-03,   1.705254e-02,   1.000000e-03
     16,   -5.178504e-03,   2.079174e-02,   1.000000e-03
     17,   -1.390326e-03,   1.827878e-02,   1.000000e-03
     18,   -4.830353e-03,   1.664842e-02,   1.000000e-03
     19,   -5.574617e-03,   1.892214e-02,   1.000000e-03
     20,   -3.284415e-03,   1.953526e-02,   1.000000e-03
** ... 2947 like lines cut
*Element, type=C3D8R
1, 1, 9, 13, 12, 14, 18, 22, 21
     2, 9, 2, 10, 13, 18, 15, 19, 22
     3, 13, 10, 3, 11, 22, 19, 16, 20
     4, 12, 13, 11, 4, 21, 22, 20, 17
     5, 14, 18, 22, 21, 5, 23, 27, 26
     6, 18, 15, 19, 22, 23, 6, 24, 27
     7, 22, 19, 16, 20, 27, 24, 7, 25
     8, 21, 22, 20, 17, 26, 27, 25, 8
     9, 28, 36, 40, 39, 41, 45, 49, 48
     10, 36, 29, 37, 40, 45, 42, 46, 49
     11, 40, 37, 30, 38, 49, 46, 43, 47
     12, 39, 40, 38, 31, 48, 49, 47, 44
     13, 41, 45, 49, 48, 32, 50, 54, 53
     14, 45, 42, 46, 49, 50, 33, 51, 54
     15, 49, 46, 43, 47, 54, 51, 34, 52
     16, 48, 49, 47, 44, 53, 54, 52, 35
     17, 55, 63, 67, 66, 68, 72, 76, 75
     18, 63, 56, 64, 67, 72, 69, 73, 76
     19, 67, 64, 57, 65, 76, 73, 70, 74
     20, 66, 67, 65, 58, 75, 76, 74, 71
** ... 1884 like lines cut
*Nset, nset=Set-1, generate
   1,  514,    1
*Elset, elset=Set-1, generate
   1,  238,    1
** Section: alu
*Solid Section, elset=Set-1, controls=EC-1, material=alum
,
*End Part
**  
**
** ASSEMBLY
**
*Assembly, name=Assembly
**  
*Instance, name=bullet-1, part=bullet
       -0.01,           0.,       -0.035
       -0.01,           0.,       -0.035, 1.0,           0.,       -0.035, 90.0
*End Instance
**  
*Instance, name=plate-1, part=plate
*End Instance
**  
*Nset, nset=Set-1, instance=plate-1
160, 163, 164, 167, 171, 173, 176, 180, 185, 430, 432, 433, 434, 436, 437,
 440, 441, 443, 445, 446, 449, 450, 454, 455, 568, 570, 571, 572, 574, 575,
  578, 579, 581, 583, 584, 587, 588, 592, 593, 625, 627, 631, 633, 637, 641,
   643, 645, 646, 647, 649, 650, 653, 654, 656, 658, 659, 662, 663, 667, 668,
    778, 780, 784, 786, 790, 794, 796, 797, 798, 799, 801, 802, 804, 805, 807,
     808, 811, 812, 875, 877, 880, 883, 886, 890, 1315, 1316, 1319, 1320, 1323,
      1328, 1329, 1332, 1337, 1582, 1584, 1586, 1590, 1592, 1596, 1651, 1652, 1655,
       1656, 1659, 1664, 1665, 1668, 1673, 1717, 1718, 1719, 1720, 1721, 1725, 1726,
        1727, 1731, 1749, 1750, 1753, 1754, 1757, 1762, 1763, 1766, 1771, 1775, 1778,
         1781, 1822, 1823, 1824, 1825, 1827, 1830, 1831, 1833, 1837, 1846, 1847, 1848,
          1849, 1852, 1854, 1855, 1858, 1862, 1895, 1896, 1898, 1899, 1902, 1906, 1907,
           1910, 1915, 1924, 1926, 1928, 1932, 1934, 1938, 1957, 1960, 1963, 1972, 1973,
            1974, 1975, 1976, 1980, 1981, 1982, 1986, 1991, 1994, 1997, 2039, 2041, 2044,
             2047, 2050, 2054, 2056, 2058, 2060, 2062, 2065, 2068, 2071, 2073, 2075, 2077,
              2080, 2083, 2137, 2139, 2141, 2144, 2146, 2149, 2152, 2155, 2159, 2162, 2165,
               2168, 2200, 2203, 2206, 2212, 2214, 2216, 2218, 2220, 2222
*Nset, nset=Set-2, instance=bullet-1
 97,
*Nset, nset=Set-3, instance=bullet-1
 97,
*End Assembly
** 
** ELEMENT CONTROLS
** 
*Section Controls, name=EC-1, DISTORTION CONTROL=YES
1., 1., 1.
** 
** MATERIALS
** 
*Material, name=alum
*Density
2800.,
*Elastic
 7e+10, 0.33
*Plastic
 1.6e+8,   0.
 3.4e+8, 0.3
 5.0e+8, 10.0
*Damage Initiation, criterion=DUCTILE
 1.0, 0., 30.
 0.7, 0.4, 30.
*Material, name=lead
*Density
11340.,
*Elastic
 1.4e+10, 0.425
** 
** INTERACTION PROPERTIES
** 
*Surface Interaction, name=IntProp-1
*Friction
 0.25,
** 
** BOUNDARY CONDITIONS
** 
** Name: BC-1 Type: Symmetry/Antisymmetry/Encastre
*Boundary
Set-1, ENCASTRE
** Name: BC-2 Type: Displacement/Rotation
*Boundary
bullet-1.Set-4, 1, 1
bullet-1.Set-4, 2, 2
bullet-1.Set-4, 4, 4
bullet-1.Set-4, 5, 5
bullet-1.Set-4, 6, 6
** 
** PREDEFINED FIELDS
** 
** Name: Predefined Field-1   Type: Velocity
*Initial Conditions, type=VELOCITY
bullet-1.Set-4, 3, 500.
** 
** INTERACTIONS
** 
** Interaction: Int-1
*Contact, op=NEW
*Contact Inclusions, ALL EXTERIOR
*Contact Property Assignment
 ,  , IntProp-1
** ----------------------------------------------------------------
** 
** STEP: Step-1
** 
*Step, name=Step-1, nlgeom=YES
*Dynamic, Explicit
1e-08, 1e-04
*Bulk Viscosity
0.06, 1.2
** 
** OUTPUT REQUESTS
** 
*Restart, write, number interval=1, time marks=NO
** 
** FIELD OUTPUT: F-Output-1
** 
*Output, field
*Node Output
A, RF, U, V
*Element Output, directions=YES
EVF, LE, PE, PEEQ, PEEQVAVG, PEVAVG, S, STATUS, SVAVG
*Contact Output
CSTRESS, 
** 
** HISTORY OUTPUT: H-Output-1
** 
*Output, history, variable=PRESELECT
*End Step
