*Heading
** Job name: bullet-impact Model name: Model-1
** Generated by: Abaqus/CAE Learning Edition 2023
** Example for HAKAI-v0.0.0
*Preprint, echo=NO, model=NO, history=NO, contact=NO
**
** PARTS
**
*Part, name=bullet
*Node
      1, 0.00404508505, 0.0199999996, 0.00293892622
      2, 0.00154508499, 0.0199999996, 0.00475528277
      3, -0.00154508499, 0.0199999996, 0.00475528277
      4, -0.00404508505, 0.0199999996, 0.00293892622
      5, -0.00499999989, 0.0199999996,           0.
      6, -0.00404508505, 0.0199999996, -0.00293892622
      7, -0.00154508499, 0.0199999996, -0.00475528277
      8, 0.00154508499, 0.0199999996, -0.00475528277
      9, 0.00404508505, 0.0199999996, -0.00293892622
     10, 0.00499999989, 0.0199999996,           0.
     11, 0.00161276129, 0.0199999996, 0.00157656719
     12, -0.00141504291, 0.0199999996, 0.000172331158
     13, 0.00150010549, 0.0199999996, -0.000146478094
     14, -0.00153350632, 0.0199999996, -0.00155321101
     15, 0.000607040944, 0.0199999996, -0.00227810466
     16, -0.000567203329, 0.0199999996, 0.00228811591
     17, 0.00404508505, 0.0233333334, 0.00293892622
     18, 0.00154508499, 0.0233333334, 0.00475528277
     19, -0.00154508499, 0.0233333334, 0.00475528277
     20, -0.00404508505, 0.0233333334, 0.00293892622
** ... 76 like lines cut
*Element, type=C3D8R
 1, 32, 27, 17, 18, 16, 11,  1,  2
 2, 19, 20, 32, 18,  3,  4, 16,  2
 3, 32, 28, 29, 27, 16, 12, 13, 11
 4, 29, 28, 30, 31, 13, 12, 14, 15
 5, 26, 17, 27, 29, 10,  1, 11, 13
 6, 22, 30, 28, 21,  6, 14, 12,  5
 7, 29, 31, 25, 26, 13, 15,  9, 10
 8, 28, 32, 20, 21, 12, 16,  4,  5
 9, 30, 22, 23, 31, 14,  6,  7, 15
10, 31, 23, 24, 25, 15,  7,  8,  9
11, 48, 43, 33, 34, 32, 27, 17, 18
12, 35, 36, 48, 34, 19, 20, 32, 18
13, 48, 44, 45, 43, 32, 28, 29, 27
14, 45, 44, 46, 47, 29, 28, 30, 31
15, 42, 33, 43, 45, 26, 17, 27, 29
16, 38, 46, 44, 37, 22, 30, 28, 21
17, 45, 47, 41, 42, 29, 31, 25, 26
18, 44, 48, 36, 37, 28, 32, 20, 21
19, 46, 38, 39, 47, 30, 22, 23, 31
20, 47, 39, 40, 41, 31, 23, 24, 25
** ... 30 like lines cut
*Node
     97,           0., 0.0350000001, 1.53080849e-19
*Nset, nset=bullet-RefPt_, internal
97, 
*Nset, nset=Set-4, generate
  1,  96,   1
*Elset, elset=Set-4, generate
  1,  50,   1
** Section: Lead
*Solid Section, elset=Set-4, material=lead
,
*End Part
**  
*Part, name=plate
*Node
      1, 0.0299999993, -0.0500000007, 0.00200000009
      2, 0.0299999993, 0.0500000007, 0.00200000009
      3, -0.0500000007, 0.0500000007, 0.00200000009
      4, -0.0500000007, -0.0500000007, 0.00200000009
      5,           0.,           0., 0.00200000009
      6, -0.0500000007, 0.0500000007, 9.49949008e-11
      7, 0.0299999993, 0.0500000007, 9.49949008e-11
      8, 0.0299999993, -0.0500000007, 9.49949008e-11
      9, -0.0500000007, -0.0500000007, 9.49949008e-11
     10,           0.,           0.,           0.
     11, 0.0299999993, -0.0399999991, 0.00200000009
     12, 0.0299999993, -0.0299999993, 0.00200000009
     13, 0.0299999993, -0.0199999996, 0.00200000009
     14, 0.0299999993, -0.00999999978, 0.00200000009
     15, 0.0299999993,           0., 0.00200000009
     16, 0.0299999993, 0.00999999978, 0.00200000009
     17, 0.0299999993, 0.0199999996, 0.00200000009
     18, 0.0299999993, 0.0299999993, 0.00200000009
     19, 0.0299999993, 0.0399999991, 0.00200000009
     20, 0.0199999996, 0.0500000007, 0.00200000009
** ... 494 like lines cut
*Element, type=C3D8R
  1, 137, 161, 187, 164, 296, 320, 346, 323
  2, 141, 116,  45, 120, 300, 275, 110, 279
  3, 136, 115,  48, 121, 295, 274, 107, 280
  4, 147, 250, 161, 129, 306, 409, 320, 288
  5, 174, 155, 145, 157, 333, 314, 304, 316
  6,  54,  55, 122, 117, 101, 100, 281, 276
  7,  11, 240, 234,  12,  77, 399, 393,  76
  8, 144,  56,  57, 130, 303,  99,  98, 289
  9,  60,  61, 132, 127,  95,  94, 291, 286
 10,  58,  59, 133, 123,  97,  96, 292, 282
 11, 255, 254, 144, 167, 414, 413, 303, 326
 12,  51,  52, 124, 119, 104, 103, 283, 278
 13, 149, 165, 182, 162, 308, 324, 341, 321
 14, 149, 131,  51, 119, 308, 290, 104, 278
 15, 154, 136, 121, 138, 313, 295, 280, 297
 16, 215, 222, 180, 260, 374, 381, 339, 419
 17, 170, 143, 127, 152, 329, 302, 286, 311
 18,  19, 237,  20,   2,  69, 396,  68,   7
 19, 179, 160, 141, 164, 338, 319, 300, 323
 20, 126, 128, 163, 139, 285, 287, 322, 298
** ... 218 like lines cut
*Nset, nset=Set-1, generate
   1,  514,    1
*Elset, elset=Set-1, generate
   1,  238,    1
** Section: alu
*Solid Section, elset=Set-1, controls=EC-1, material=alum
,
*End Part
**  
**
** ASSEMBLY
**
*Assembly, name=Assembly
**  
*Instance, name=bullet-1, part=bullet
       -0.01,           0.,       -0.035
       -0.01,           0.,       -0.035, 1.0,           0.,       -0.035, 90.0
*End Instance
**  
*Instance, name=plate-1, part=plate
*End Instance
**  
*Nset, nset=Set-1, instance=plate-1
  1,  2,  3,  4,  6,  7,  8,  9, 11, 12, 13, 14, 15, 16, 17, 18
 19, 20, 21, 22, 23, 24, 25, 26, 27, 28, 29, 30, 31, 32, 33, 34
 35, 36, 37, 38, 39, 40, 41, 42, 62, 63, 64, 65, 66, 67, 68, 69
 70, 71, 72, 73, 74, 75, 76, 77, 78, 79, 80, 81, 82, 83, 84, 85
 86, 87, 88, 89, 90, 91, 92, 93
*Elset, elset=Set-1, instance=plate-1
   7,  18,  24,  28,  29,  36,  37,  42,  77,  99, 104, 108, 110, 111, 115, 117
 121, 123, 126, 128, 129, 134, 135, 136, 137, 138, 144, 145, 146, 149, 151, 152
*Nset, nset=Set-2, instance=bullet-1
 97,
*Nset, nset=Set-3, instance=bullet-1
 97,
*End Assembly
** 
** ELEMENT CONTROLS
** 
*Section Controls, name=EC-1, DISTORTION CONTROL=YES
1., 1., 1.
** 
** MATERIALS
** 
*Material, name=alum
*Density
2800.,
*Elastic
 7e+10, 0.33
*Plastic
 1.6e+8,   0.
 3.4e+8, 0.3
*Damage Initiation, criterion=DUCTILE
 1.0, 0., 30.
 0.7, 0.4, 30.
*Material, name=lead
*Density
11340.,
*Elastic
 1.4e+10, 0.425
** 
** INTERACTION PROPERTIES
** 
*Surface Interaction, name=IntProp-1
*Friction
 0.25,
** 
** BOUNDARY CONDITIONS
** 
** Name: BC-1 Type: Symmetry/Antisymmetry/Encastre
*Boundary
Set-1, ENCASTRE
** Name: BC-2 Type: Displacement/Rotation
*Boundary
bullet-1.Set-4, 1, 1
bullet-1.Set-4, 2, 2
bullet-1.Set-4, 4, 4
bullet-1.Set-4, 5, 5
bullet-1.Set-4, 6, 6
** 
** PREDEFINED FIELDS
** 
** Name: Predefined Field-1   Type: Velocity
*Initial Conditions, type=VELOCITY
bullet-1.Set-4, 3, 500.
** 
** INTERACTIONS
** 
** Interaction: Int-1
*Contact, op=NEW
*Contact Inclusions, ALL EXTERIOR
*Contact Property Assignment
 ,  , IntProp-1
** ----------------------------------------------------------------
** 
** STEP: Step-1
** 
*Step, name=Step-1, nlgeom=YES
*Dynamic, Explicit
1e-08, 1e-04
*Bulk Viscosity
0.06, 1.2
** 
** OUTPUT REQUESTS
** 
*Restart, write, number interval=1, time marks=NO
** 
** FIELD OUTPUT: F-Output-1
** 
*Output, field
*Node Output
A, RF, U, V
*Element Output, directions=YES
EVF, LE, PE, PEEQ, PEEQVAVG, PEVAVG, S, STATUS, SVAVG
*Contact Output
CSTRESS, 
** 
** HISTORY OUTPUT: H-Output-1
** 
*Output, history, variable=PRESELECT
*End Step
