*Heading
** Job name: Charpy-Solid Model name: Model-1
** Generated by: Abaqus/CAE Learning Edition 2023
*Preprint, echo=NO, model=NO, history=NO, contact=NO
**
** PARTS
**
*Part, name=PENDULUM
*Node
      1,          -5.,          20.,           0.
      2,         -20.,          20.,           0.
      3,  -10.7405615,   9.37927246,           0.
      4,  -13.2015972,   8.45735741,           0.
      5,  -11.7984028,   8.45735741,           0.
      6,  -14.2594385,   9.37927246,           0.
      7,         -10.,          20.,           0.
      8,         -15.,          20.,           0.
      9,  -8.82704067,   12.9195156,           0.
     10,  -6.91352034,   16.4597569,           0.
     11,  -18.0864792,   16.4597569,           0.
     12,  -16.1729584,   12.9195156,           0.
     13,   -10.541441,   17.0714588,           0.
     14,  -12.9725666,   10.8451223,           0.
     15,  -14.5475836,   17.0676403,           0.
     16,  -13.8993311,   13.7748985,           0.
     17,  -11.7126789,   11.2623768,           0.
     18,   -11.127636,   13.8307018,           0.
     19,          -5.,          20.,           5.
     20,         -20.,          20.,           5.
** ... 52 like lines cut
*Element, type=C3D8R
 1, 16, 15, 11, 12, 34, 33, 29, 30
 2, 12,  6, 14, 16, 30, 24, 32, 34
 3,  5, 14,  6,  4, 23, 32, 24, 22
 4, 13, 10,  1,  7, 31, 28, 19, 25
 5, 18,  9, 10, 13, 36, 27, 28, 31
 6, 15,  8,  2, 11, 33, 26, 20, 29
 7, 15, 13,  7,  8, 33, 31, 25, 26
 8, 18, 16, 14, 17, 36, 34, 32, 35
 9,  3,  9, 18, 17, 21, 27, 36, 35
10, 13, 15, 16, 18, 31, 33, 34, 36
11, 17, 14,  5,  3, 35, 32, 23, 21
12, 34, 33, 29, 30, 52, 51, 47, 48
13, 30, 24, 32, 34, 48, 42, 50, 52
14, 23, 32, 24, 22, 41, 50, 42, 40
15, 31, 28, 19, 25, 49, 46, 37, 43
16, 36, 27, 28, 31, 54, 45, 46, 49
17, 33, 26, 20, 29, 51, 44, 38, 47
18, 33, 31, 25, 26, 51, 49, 43, 44
19, 36, 34, 32, 35, 54, 52, 50, 53
20, 21, 27, 36, 35, 39, 45, 54, 53
** ... 13 like lines cut
*Nset, nset=Set-1, generate
  1,  72,   1
*Elset, elset=Set-1, generate
  1,  33,   1
** Section: STEEL-Elastic
*Solid Section, elset=Set-1, material=STEEL-Elastic
,
*End Part
**  
*Part, name=PLATE
*Node
1,   1.500000e+01,   0.000000e+00,   1.500000e+01
2,   1.500000e+01,   5.000000e+00,   1.500000e+01
3,   1.500000e+01,   5.000000e+00,   1.000000e+01
4,   1.500000e+01,   0.000000e+00,   1.000000e+01
5,   1.000000e+01,   0.000000e+00,   1.500000e+01
6,   1.000000e+01,   5.000000e+00,   1.500000e+01
7,   1.000000e+01,   5.000000e+00,   1.000000e+01
8,   1.000000e+01,   0.000000e+00,   1.000000e+01
9,   1.500000e+01,   2.500000e+00,   1.500000e+01
10,   1.500000e+01,   5.000000e+00,   1.250000e+01
11,   1.500000e+01,   2.500000e+00,   1.000000e+01
12,   1.500000e+01,   0.000000e+00,   1.250000e+01
13,   1.500000e+01,   2.500000e+00,   1.250000e+01
14,   1.250000e+01,   0.000000e+00,   1.500000e+01
15,   1.250000e+01,   5.000000e+00,   1.500000e+01
16,   1.250000e+01,   5.000000e+00,   1.000000e+01
17,   1.250000e+01,   0.000000e+00,   1.000000e+01
18,   1.250000e+01,   2.500000e+00,   1.500000e+01
19,   1.250000e+01,   5.000000e+00,   1.250000e+01
20,   1.250000e+01,   2.500000e+00,   1.000000e+01
** ... 85 like lines cut
*Element, type=C3D8R
1, 1, 9, 13, 12, 14, 18, 22, 21
2, 9, 2, 10, 13, 18, 15, 19, 22
3, 13, 10, 3, 11, 22, 19, 16, 20
4, 12, 13, 11, 4, 21, 22, 20, 17
5, 14, 18, 22, 21, 5, 23, 27, 26
6, 18, 15, 19, 22, 23, 6, 24, 27
7, 22, 19, 16, 20, 27, 24, 7, 25
8, 21, 22, 20, 17, 26, 27, 25, 8
9, 2, 32, 35, 10, 15, 38, 41, 19
10, 32, 28, 33, 35, 38, 36, 39, 41
11, 35, 33, 29, 34, 41, 39, 37, 40
12, 10, 35, 34, 3, 19, 41, 40, 16
13, 15, 38, 41, 19, 6, 42, 45, 24
14, 38, 36, 39, 41, 42, 30, 43, 45
15, 41, 39, 37, 40, 45, 43, 31, 44
16, 19, 41, 40, 16, 24, 45, 44, 7
17, 4, 11, 53, 52, 17, 20, 59, 58
18, 11, 3, 50, 53, 20, 16, 56, 59
19, 53, 50, 46, 51, 59, 56, 54, 57
20, 52, 53, 51, 47, 58, 59, 57, 55
** ... 28 like lines cut
*Nset, nset=Set-1, generate
  1,  105,   1
*Elset, elset=Set-1, generate
 1,  48,  1
** Section: STEEL-Elastic
*Solid Section, elset=Set-1, material=STEEL-Elastic
,
*End Part
**  
*Part, name=SPECIMENT
*Node
1,   3.250000e+01,   7.500000e+00,   1.000000e+01
2,   3.250000e+01,   7.500000e+00,   7.500000e+00
3,   3.500000e+01,   7.500000e+00,   7.500000e+00
4,   3.500000e+01,   7.500000e+00,   1.000000e+01
5,   3.250000e+01,   5.000000e+00,   1.000000e+01
6,   3.250000e+01,   5.000000e+00,   7.500000e+00
7,   3.500000e+01,   5.000000e+00,   7.500000e+00
8,   3.500000e+01,   5.000000e+00,   1.000000e+01
9,   3.250000e+01,   7.500000e+00,   8.750000e+00
10,   3.375000e+01,   7.500000e+00,   7.500000e+00
11,   3.500000e+01,   7.500000e+00,   8.750000e+00
12,   3.375000e+01,   7.500000e+00,   1.000000e+01
13,   3.375000e+01,   7.500000e+00,   8.750000e+00
14,   3.250000e+01,   6.250000e+00,   1.000000e+01
15,   3.250000e+01,   6.250000e+00,   7.500000e+00
16,   3.500000e+01,   6.250000e+00,   7.500000e+00
17,   3.500000e+01,   6.250000e+00,   1.000000e+01
18,   3.250000e+01,   6.250000e+00,   8.750000e+00
19,   3.375000e+01,   6.250000e+00,   7.500000e+00
20,   3.500000e+01,   6.250000e+00,   8.750000e+00
** ... 4849 like lines cut
*Element, type=C3D8R
1, 1, 9, 13, 12, 14, 18, 22, 21
2, 9, 2, 10, 13, 18, 15, 19, 22
3, 13, 10, 3, 11, 22, 19, 16, 20
4, 12, 13, 11, 4, 21, 22, 20, 17
5, 14, 18, 22, 21, 5, 23, 27, 26
6, 18, 15, 19, 22, 23, 6, 24, 27
7, 22, 19, 16, 20, 27, 24, 7, 25
8, 21, 22, 20, 17, 26, 27, 25, 8
9, 2, 32, 35, 10, 15, 38, 41, 19
10, 32, 28, 33, 35, 38, 36, 39, 41
11, 35, 33, 29, 34, 41, 39, 37, 40
12, 10, 35, 34, 3, 19, 41, 40, 16
13, 15, 38, 41, 19, 6, 42, 45, 24
14, 38, 36, 39, 41, 42, 30, 43, 45
15, 41, 39, 37, 40, 45, 43, 31, 44
16, 19, 41, 40, 16, 24, 45, 44, 7
17, 28, 50, 53, 33, 36, 56, 59, 39
18, 50, 46, 51, 53, 56, 54, 57, 59
19, 53, 51, 47, 52, 59, 57, 55, 58
20, 33, 53, 52, 29, 39, 59, 58, 37
** ... 3724 like lines cut
*Nset, nset=Set-1, generate
   1,  4869,    1
*Elset, elset=Set-1, generate
   1,  3744,    1
** Section: STEEL
*Solid Section, elset=Set-1, material=STEEL
,
*End Part
**  
**
** ASSEMBLY
**
*Assembly, name=Assembly
**  
*Instance, name=PENDULUM-1, part=PENDULUM
        12.5,     6.669741,         -2.5
*End Instance
**  
*Instance, name=SPECIMENT-1, part=SPECIMENT
*End Instance
**  
*Instance, name=PLATE-1, part=PLATE
        17.5,          -5.,         -2.5
*End Instance
**  
*Instance, name=PLATE-2, part=PLATE
       -42.5,          -5.,         -2.5
*End Instance
**  
*Nset, nset=Set-3, instance=PLATE-1
 1, 4, 5, 8, 12, 14, 17, 21, 26, 47, 49, 52, 55, 58, 62, 77, 79, 82, 85, 88, 92
*Elset, elset=Set-3, instance=PLATE-1
 1,
*Nset, nset=Set-4, instance=PLATE-2
 1, 4, 5, 8, 12, 14, 17, 21, 26, 47, 49, 52, 55, 58, 62, 77, 79, 82, 85, 88, 92
*Elset, elset=Set-4, instance=PLATE-2
 1,
*Nset, nset=Set-5, instance=PENDULUM-1, generate
  1,  72,   1
*Elset, elset=Set-5, instance=PENDULUM-1, generate
  1,  33,   1
*End Assembly
*Amplitude, name=Amp-1
             0.,              0.,              0.001,              1.
** 
** MATERIALS
** 
*Material, name=STEEL
*Damage Initiation, criterion=DUCTILE
  1.,  0., 30.
 0.5, 0.4, 30.
*Damage Evolution, type=DISPLACEMENT
 0.02,
*Density
 7.8e-09,
*Elastic
210000., 0.3
*Plastic
 755.,   0.
 809., 0.01
 829., 0.02
 842.,  0.1
 895., 0.15
 922.,  0.4
 953.,   1.
1100.,   4.
*Tensile Failure
 1020.,
*Material, name=STEEL-Elastic
*Density
 7.8e-09,
*Elastic
210000., 0.3
** 
** INTERACTION PROPERTIES
** 
*Surface Interaction, name=IntProp-1
*Friction
 0.2,
*Surface Behavior, pressure-overclosure=HARD
** ----------------------------------------------------------------
** 
** STEP: Step-1
** 
*Step, name=Step-1, nlgeom=YES
*Dynamic, Explicit
1.0e-07, 0.001
*Bulk Viscosity
0.06, 1.2
** Mass Scaling: Semi-Automatic
**               Whole Model
** Fixed Mass Scaling, dt=0.0001, type=below min
** 
** BOUNDARY CONDITIONS
** 
** Name: BC-1 Type: Symmetry/Antisymmetry/Encastre
*Boundary
Set-3, ENCASTRE
** Name: BC-2 Type: Symmetry/Antisymmetry/Encastre
*Boundary
Set-4, ENCASTRE
** Name: BC-3 Type: Displacement/Rotation
*Boundary, amplitude=Amp-1
Set-5, 1, 1
Set-5, 2, 2, -30.
Set-5, 3, 3
Set-5, 4, 4
Set-5, 5, 5
Set-5, 6, 6
** 
** INTERACTIONS
** 
*Contact, op=NEW
*Contact Inclusions, ALL EXTERIOR
*Contact Property Assignment
 ,  , IntProp-1
** 
** OUTPUT REQUESTS
** 
*Restart, write, number interval=1, time marks=NO
** 
** FIELD OUTPUT: F-Output-1
** 
*Output, field
*Node Output
A, RF, TIEADJUST, TIEDSTATUS, U, V
*Element Output, directions=YES
BURNF, DBURNF, DENSITY, DENSITYVAVG, EACTIVE, EMSF, ESDV, EVF, FV, LE, MFR, PE, PEEQ, PEEQVAVG, PEVAVG, RHOE
RHOP, S, SDV, STATUS, SVAVG, UVARM
*Contact Output
CSTRESS, 
** 
** HISTORY OUTPUT: H-Output-1
** 
*Output, history, variable=PRESELECT
*End Step
