*Heading
** Job name: COUPING Model name: Model-1
** Generated by: Abaqus/CAE Learning Edition 2023
*Preprint, echo=NO, model=NO, history=NO, contact=NO
**
** PARTS
**
*Part, name=couping
*Node
      1, 0.0335265398, -0.0250000004, 0.0299999993
      2, 0.0252898093, -0.0250000004, 0.0299999993
      3, 0.0376449041, -0.0250000004,  0.017832607
      4, 0.0399443246, -0.0250000004, 0.0197591111
      5, 0.0323510282, -0.0149999997, 0.0299999993
      6,   0.02352654, -0.0149999997, 0.0299999993
      7, 0.0367632695, -0.0149999997, 0.0169643648
      8, 0.0390565172, -0.0150000006, 0.0191287342
      9, 0.0500000007, -0.0250000004, 0.00566521287
     10, 0.0500000007, -0.0250000004,  0.013776808
     11, 0.0500000007, -0.0149999997, 0.0039287312
     12, 0.0500000007, -0.0149999997, 0.0126191536
     13, 0.0500000007, -0.0250000004, 0.0299999993
     14, 0.0500000007, -0.0149999997, 0.0299999993
     15, 0.0199999996, 0.00499999989, 0.0299999993
     16, 0.0350000001, 0.00499999989, 0.0152278841
     17, 0.0299999993, 0.00499999989, 0.0299999993
     18, 0.0377916656, 0.00499999989,  0.017566802
     19, 0.0500000007, 0.00499999989, 0.000455767411
     20, 0.0500000007, 0.00499999989, 0.0103038447
** ... 36 like lines cut
*Element, type=C3D8R
 1,  5,  6, 24, 25,  1,  2, 22, 23
 2, 25, 24,  7,  8, 23, 22,  3,  4
 3,  7, 28, 29,  8,  3, 26, 27,  4
 4, 28, 11, 12, 29, 26,  9, 10, 27
 5, 12, 32, 48, 29, 10, 30, 47, 27
 6, 32, 14, 33, 48, 30, 13, 31, 47
 7, 29, 48, 25,  8, 27, 47, 23,  4
 8, 48, 33,  5, 25, 47, 31,  1, 23
 9,  5, 37, 50, 25,  6, 34, 49, 24
10, 37, 17, 38, 50, 34, 15, 35, 49
11, 25, 50, 39,  8, 24, 49, 36,  7
12, 50, 38, 18, 39, 49, 35, 16, 36
13, 18, 42, 52, 39, 16, 40, 51, 36
14, 42, 20, 43, 52, 40, 19, 41, 51
15, 39, 52, 29,  8, 36, 51, 28,  7
16, 52, 43, 12, 29, 51, 41, 11, 28
17, 37, 55, 56, 50, 17, 44, 53, 38
18, 55, 46, 54, 56, 44, 21, 45, 53
19, 50, 56, 52, 39, 38, 53, 42, 18
20, 56, 54, 43, 52, 53, 45, 20, 42
** ... 4 like lines cut
*Nset, nset=Set-1, generate
  1,  56,   1
*Elset, elset=Set-1, generate
  1,  24,   1
** Section: STEEL
*Solid Section, elset=Set-1, material=STEEL
,
*End Part
**  
*Part, name=plate
*Node
1,   6.500000e-02,   3.500000e-02,   2.000000e-02
2,   6.500000e-02,   3.500000e-02,   1.000000e-02
3,   6.500000e-02,   3.700000e-02,   1.000000e-02
4,   6.500000e-02,   3.700000e-02,   2.000000e-02
5,   7.000000e-02,   3.500000e-02,   2.000000e-02
6,   7.000000e-02,   3.500000e-02,   1.000000e-02
7,   7.000000e-02,   3.700000e-02,   1.000000e-02
8,   7.000000e-02,   3.700000e-02,   2.000000e-02
9,   6.500000e-02,   3.500000e-02,   1.500000e-02
10,   6.500000e-02,   3.600000e-02,   1.000000e-02
11,   6.500000e-02,   3.700000e-02,   1.500000e-02
12,   6.500000e-02,   3.600000e-02,   2.000000e-02
13,   6.500000e-02,   3.600000e-02,   1.500000e-02
14,   6.750000e-02,   3.500000e-02,   2.000000e-02
15,   6.750000e-02,   3.500000e-02,   1.000000e-02
16,   6.750000e-02,   3.700000e-02,   1.000000e-02
17,   6.750000e-02,   3.700000e-02,   2.000000e-02
18,   6.750000e-02,   3.500000e-02,   1.500000e-02
19,   6.750000e-02,   3.600000e-02,   1.000000e-02
20,   6.750000e-02,   3.700000e-02,   1.500000e-02
** ... 5245 like lines cut
*Element, type=C3D8R
1, 1, 9, 13, 12, 14, 18, 22, 21
2, 9, 2, 10, 13, 18, 15, 19, 22
3, 13, 10, 3, 11, 22, 19, 16, 20
4, 12, 13, 11, 4, 21, 22, 20, 17
5, 14, 18, 22, 21, 5, 23, 27, 26
6, 18, 15, 19, 22, 23, 6, 24, 27
7, 22, 19, 16, 20, 27, 24, 7, 25
8, 21, 22, 20, 17, 26, 27, 25, 8
9, 2, 32, 35, 10, 15, 38, 41, 19
10, 32, 28, 33, 35, 38, 36, 39, 41
11, 35, 33, 29, 34, 41, 39, 37, 40
12, 10, 35, 34, 3, 19, 41, 40, 16
13, 15, 38, 41, 19, 6, 42, 45, 24
14, 38, 36, 39, 41, 42, 30, 43, 45
15, 41, 39, 37, 40, 45, 43, 31, 44
16, 19, 41, 40, 16, 24, 45, 44, 7
17, 4, 11, 53, 52, 17, 20, 59, 58
18, 11, 3, 50, 53, 20, 16, 56, 59
19, 53, 50, 46, 51, 59, 56, 54, 57
20, 52, 53, 51, 47, 58, 59, 57, 55
** ... 3820 like lines cut
*Nset, nset=Set-1, generate
   1,  5265,    1
*Elset, elset=Set-1, generate
   1,  3840,    1
** Section: ALU
*Solid Section, elset=Set-1, material=ALU
,
*End Part
**  
**
** ASSEMBLY
**
*Assembly, name=Assembly
**  
*Instance, name=plate-1, part=plate
      -0.001,       -0.005,           0.
*End Instance
**  
*Instance, name=couping-1, part=couping
     0.06794,        0.083,           0.
     0.06794,        0.083,           0., -0.509410269189626, 0.660350269189626, -0.577350269189626,         120.
*End Instance
**  
*Nset, nset=Set-1, instance=plate-1
4456, 4457, 4458, 4459, 4460, 4464, 4465, 4466, 4470, 4474, 4475, 4476, 4479, 4480,
4483, 4486, 4487, 4488, 4489, 4490, 4494, 4498, 4499, 4500, 4503, 4506, 4507, 4508,
4509, 4510, 4514, 4518, 4519, 4520, 4523, 4526, 4527, 4528, 4529, 4530, 4534, 4538,
4539, 4540, 4543, 4546, 4547, 4548, 4549, 4550, 4554, 4558, 4559, 4560, 4563, 4566,
4567, 4568, 4569, 4570, 4574, 4578, 4579, 4580, 4583, 4586, 4587, 4588, 4589, 4590,
4594, 4598, 4599, 4600, 4603, 4606, 4607, 4608, 4609, 4610, 4614, 4618, 4619, 4620,
4623, 4626, 4627, 4628, 4629, 4630, 4634, 4638, 4639, 4640, 4643, 4646, 4647, 4648,
4649, 4650, 4654, 4658, 4659, 4660, 4663, 4666, 4667, 4668, 4669, 4670, 4674, 4678,
4679, 4680, 4683, 4686, 4687, 4688, 4689, 4690, 4694, 4698, 4699, 4700, 4703, 4706,
4707, 4708, 4709, 4710, 4714, 4718, 4719, 4720, 4723, 4726, 4727, 4728, 4729, 4730,
4734, 4738, 4739, 4740, 4743, 4746, 4747, 4748, 4749, 4750, 4754, 4758, 4759, 4760,
4763, 4766, 4767, 4768, 4769, 4770, 4774, 4778, 4779, 4780, 4783, 4786, 4787, 4788,
4789, 4790, 4794, 4798, 4799, 4800, 4803, 4806, 4807, 4808, 4809, 4810, 4814, 4818,
4819, 4820, 4823, 4826, 4827, 4828, 4829, 4830, 4834, 4838, 4839, 4840, 4843, 4846,
4847, 4848, 4849, 4850, 4854, 4858, 4859, 4860, 4863, 4866, 4867, 4868, 4869, 4870,
4874, 4878, 4879, 4880, 4883, 4886, 4887, 4888, 4889, 4890, 4894, 4898, 4899, 4900,
4903, 4906, 4907, 4908, 4909, 4910, 4914, 4918, 4919, 4920, 4923, 4926, 4927, 4928,
4929, 4930, 4934, 4938, 4939, 4940, 4943, 4946, 4947, 4948, 4949, 4950, 4954, 4958,
4959, 4960, 4963, 4966, 4967, 4968, 4969, 4970, 4974, 4978, 4979, 4980, 4983, 4986,
4987, 4988, 4989, 4990, 4994, 4998, 4999, 5000, 5003, 5006, 5007, 5008, 5009, 5010,
** ... 9 like lines cut
*Nset, nset=Set-4, instance=couping-1, generate
  1,  56,   1
*Elset, elset=Set-4, instance=couping-1, generate
  1,  24,   1
*End Assembly
*Amplitude, name=Amp-1
             0.,              0.,             0.002,              1.
** 
** MATERIALS
** 
*Material, name=ALU
*Density
2700.,
*Elastic
 7e+10, 0.33
*Plastic
1.6e+8,   0.
3.4e+8, 0.3
*Damage Initiation, criterion=DUCTILE
 1.0, 0., 30.
 0.5, 0.4, 30.
*Material, name=STEEL
*Density
7800.,
*Elastic
 2.1e+11, 0.3
** 
** INTERACTION PROPERTIES
** 
*Surface Interaction, name=IntProp-1
*Friction
 0.25,
** 
** BOUNDARY CONDITIONS
** 
** Name: BC-1 Type: Symmetry/Antisymmetry/Encastre
*Boundary
Set-1, ENCASTRE
** 
** INTERACTIONS
** 
** Interaction: Int-1
*Contact, op=NEW
*Contact Inclusions, ALL EXTERIOR
*Contact Property Assignment
 ,  , IntProp-1
** ----------------------------------------------------------------
** 
** STEP: Step-1
** 
*Step, name=Step-1, nlgeom=YES
*Dynamic, Explicit
1e-07, 2e-03
*Bulk Viscosity
0.06, 1.2
** Mass Scaling: Semi-Automatic
**               Whole Model
** Fixed Mass Scaling, dt=1e-07, type=below min
** 
** BOUNDARY CONDITIONS
** 
** Name: BC-2 Type: Displacement/Rotation
*Boundary, amplitude=Amp-1
Set-4, 1, 1, -0.2
Set-4, 2, 2
Set-4, 3, 3
Set-4, 4, 4
Set-4, 5, 5
Set-4, 6, 6
** 
** OUTPUT REQUESTS
** 
*Restart, write, number interval=1, time marks=NO
** 
** FIELD OUTPUT: F-Output-1
** 
*Output, field, number interval=100
*Node Output
A, RF, U, V
*Element Output, directions=YES
EVF, LE, PE, PEEQ, PEEQVAVG, PEVAVG, S, STATUS, SVAVG
*Contact Output
CSTRESS, 
** 
** HISTORY OUTPUT: H-Output-1
** 
*Output, history, variable=PRESELECT
*End Step
