*Heading
** Job name: COUPING Model name: Model-1
** Generated by: Abaqus/CAE Learning Edition 2023
*Preprint, echo=NO, model=NO, history=NO, contact=NO
**
** PARTS
**
*Part, name=couping
*Node
      1, 0.0335265398, -0.0250000004, 0.0299999993
      2, 0.0252898093, -0.0250000004, 0.0299999993
      3, 0.0376449041, -0.0250000004,  0.017832607
      4, 0.0399443246, -0.0250000004, 0.0197591111
      5, 0.0323510282, -0.0149999997, 0.0299999993
      6,   0.02352654, -0.0149999997, 0.0299999993
      7, 0.0367632695, -0.0149999997, 0.0169643648
      8, 0.0390565172, -0.0150000006, 0.0191287342
      9, 0.0500000007, -0.0250000004, 0.00566521287
     10, 0.0500000007, -0.0250000004,  0.013776808
     11, 0.0500000007, -0.0149999997, 0.0039287312
     12, 0.0500000007, -0.0149999997, 0.0126191536
     13, 0.0500000007, -0.0250000004, 0.0299999993
     14, 0.0500000007, -0.0149999997, 0.0299999993
     15, 0.0199999996, 0.00499999989, 0.0299999993
     16, 0.0350000001, 0.00499999989, 0.0152278841
     17, 0.0299999993, 0.00499999989, 0.0299999993
     18, 0.0377916656, 0.00499999989,  0.017566802
     19, 0.0500000007, 0.00499999989, 0.000455767411
     20, 0.0500000007, 0.00499999989, 0.0103038447
** ... 36 like lines cut
*Element, type=C3D8R
 1,  5,  6, 24, 25,  1,  2, 22, 23
 2, 25, 24,  7,  8, 23, 22,  3,  4
 3,  7, 28, 29,  8,  3, 26, 27,  4
 4, 28, 11, 12, 29, 26,  9, 10, 27
 5, 12, 32, 48, 29, 10, 30, 47, 27
 6, 32, 14, 33, 48, 30, 13, 31, 47
 7, 29, 48, 25,  8, 27, 47, 23,  4
 8, 48, 33,  5, 25, 47, 31,  1, 23
 9,  5, 37, 50, 25,  6, 34, 49, 24
10, 37, 17, 38, 50, 34, 15, 35, 49
11, 25, 50, 39,  8, 24, 49, 36,  7
12, 50, 38, 18, 39, 49, 35, 16, 36
13, 18, 42, 52, 39, 16, 40, 51, 36
14, 42, 20, 43, 52, 40, 19, 41, 51
15, 39, 52, 29,  8, 36, 51, 28,  7
16, 52, 43, 12, 29, 51, 41, 11, 28
17, 37, 55, 56, 50, 17, 44, 53, 38
18, 55, 46, 54, 56, 44, 21, 45, 53
19, 50, 56, 52, 39, 38, 53, 42, 18
20, 56, 54, 43, 52, 53, 45, 20, 42
** ... 4 like lines cut
*Nset, nset=Set-1, generate
  1,  56,   1
*Elset, elset=Set-1, generate
  1,  24,   1
** Section: STEEL
*Solid Section, elset=Set-1, material=STEEL
,
*End Part
**  
*Part, name=plate
*Node
      1, 0.0700000003, 0.0350000001, 0.0199999996
      2, 0.0700000003, 0.0350000001,           0.
      3, 0.0700000003, 0.0450000018,           0.
      4, 0.0700000003, 0.0450000018, 0.0199999996
      5, -0.129999995, 0.0350000001,           0.
      6, -0.129999995, 0.0450000018,           0.
      7, -0.129999995, 0.0450000018, 0.0199999996
      8, -0.129999995, 0.0350000001, 0.0199999996
      9, 0.0700000003, 0.00499999989, 0.0199999996
     10, 0.0700000003, 0.00499999989,           0.
     11, -0.129999995, 0.00499999989,           0.
     12, -0.129999995, 0.00499999989, 0.0199999996
     13, 0.0700000003, 0.0350000001, 0.00999999978
     14, 0.0700000003, 0.0370000005,           0.
     15, 0.0700000003, 0.0390000008,           0.
     16, 0.0700000003, 0.0410000011,           0.
     17, 0.0700000003, 0.0430000015,           0.
     18, 0.0700000003, 0.0450000018, 0.00999999978
     19, 0.0700000003, 0.0430000015, 0.0199999996
     20, 0.0700000003, 0.0410000011, 0.0199999996
** ... 841 like lines cut
*Element, type=C3D8R
  1, 110, 589, 706, 277,   1,  13, 269,  22
  2, 589, 150, 433, 706,  13,   2,  14, 269
  3, 277, 706, 707, 278,  22, 269, 270,  21
  4, 706, 433, 434, 707, 269,  14,  15, 270
  5, 278, 707, 708, 279,  21, 270, 271,  20
  6, 707, 434, 435, 708, 270,  15,  16, 271
  7, 279, 708, 709, 280,  20, 271, 272,  19
  8, 708, 435, 436, 709, 271,  16,  17, 272
  9, 280, 709, 628,  33,  19, 272,  18,   4
 10, 709, 436, 149, 628, 272,  17,   3,  18
 11, 109, 590, 710, 281, 110, 589, 706, 277
 12, 590, 151, 437, 710, 589, 150, 433, 706
 13, 281, 710, 711, 282, 277, 706, 707, 278
 14, 710, 437, 438, 711, 706, 433, 434, 707
 15, 282, 711, 712, 283, 278, 707, 708, 279
 16, 711, 438, 439, 712, 707, 434, 435, 708
 17, 283, 712, 713, 284, 279, 708, 709, 280
 18, 712, 439, 440, 713, 708, 435, 436, 709
 19, 284, 713, 629,  34, 280, 709, 628,  33
 20, 713, 440, 148, 629, 709, 436, 149, 628
** ... 460 like lines cut
*Nset, nset=Set-1, generate
   1,  861,    1
*Elset, elset=Set-1, generate
   1,  480,    1
** Section: ALU
*Solid Section, elset=Set-1, material=ALU
,
*End Part
**  
**
** ASSEMBLY
**
*Assembly, name=Assembly
**  
*Instance, name=plate-1, part=plate
      -0.001,       -0.005,           0.
*End Instance
**  
*Instance, name=couping-1, part=couping
     0.06794,        0.083,           0.
     0.06794,        0.083,           0., -0.509410269189626, 0.660350269189626, -0.577350269189626,         120.
*End Instance
**  
*Nset, nset=Set-1, instance=plate-1
   9,  10,  11,  12, 189, 190, 191, 192, 193, 194, 195, 196, 197, 198, 199, 200
 201, 202, 203, 204, 205, 206, 207, 208, 209, 210, 211, 212, 213, 214, 215, 216
 217, 218, 219, 220, 221, 222, 223, 224, 225, 226, 227, 228, 229, 230, 231, 232
 233, 234, 235, 236, 237, 238, 239, 240, 241, 242, 243, 244, 245, 246, 247, 248
 249, 250, 251, 252, 253, 254, 255, 256, 257, 258, 259, 260, 261, 262, 263, 264
 265, 266, 267, 268, 667, 668, 669, 670, 671, 672, 673, 674, 675, 676, 677, 678
 679, 680, 681, 682, 683, 684, 685, 686, 687, 688, 689, 690, 691, 692, 693, 694
 695, 696, 697, 698, 699, 700, 701, 702, 703, 704, 705
*Elset, elset=Set-1, instance=plate-1, generate
 401,  480,    1
*Nset, nset=Set-4, instance=couping-1, generate
  1,  56,   1
*Elset, elset=Set-4, instance=couping-1, generate
  1,  24,   1
*End Assembly
*Amplitude, name=Amp-1
             0.,              0.,             0.002,              1.
** 
** MATERIALS
** 
*Material, name=ALU
*Density
2700.,
*Elastic
 7e+10, 0.33
*Plastic
1.6e+8,   0.
3.4e+8, 0.3
*Damage Initiation, criterion=DUCTILE
 1.0, 0., 30.
 0.5, 0.4, 30.
*Material, name=STEEL
*Density
7800.,
*Elastic
 2.1e+11, 0.3
** 
** INTERACTION PROPERTIES
** 
*Surface Interaction, name=IntProp-1
*Friction
 0.25,
** 
** BOUNDARY CONDITIONS
** 
** Name: BC-1 Type: Symmetry/Antisymmetry/Encastre
*Boundary
Set-1, ENCASTRE
** 
** INTERACTIONS
** 
** Interaction: Int-1
*Contact, op=NEW
*Contact Inclusions, ALL EXTERIOR
*Contact Property Assignment
 ,  , IntProp-1
** ----------------------------------------------------------------
** 
** STEP: Step-1
** 
*Step, name=Step-1, nlgeom=YES
*Dynamic, Explicit
1e-07, 2e-03
*Bulk Viscosity
0.06, 1.2
** Mass Scaling: Semi-Automatic
**               Whole Model
** Fixed Mass Scaling, dt=1e-07, type=below min
** 
** BOUNDARY CONDITIONS
** 
** Name: BC-2 Type: Displacement/Rotation
*Boundary, amplitude=Amp-1
Set-4, 1, 1, -0.2
Set-4, 2, 2
Set-4, 3, 3
Set-4, 4, 4
Set-4, 5, 5
Set-4, 6, 6
** 
** OUTPUT REQUESTS
** 
*Restart, write, number interval=1, time marks=NO
** 
** FIELD OUTPUT: F-Output-1
** 
*Output, field, number interval=100
*Node Output
A, RF, U, V
*Element Output, directions=YES
EVF, LE, PE, PEEQ, PEEQVAVG, PEVAVG, S, STATUS, SVAVG
*Contact Output
CSTRESS, 
** 
** HISTORY OUTPUT: H-Output-1
** 
*Output, history, variable=PRESELECT
*End Step
