*Heading
** Job name: ElastoPlast Model name: Model-1
** Generated by: Abaqus/CAE Learning Edition 2023
** Example for HAKAI-v0.0.0
*Preprint, echo=NO, model=NO, history=NO, contact=NO
**
** PARTS
**
*Part, name=Part-1
*Node
1,   5.000000e+00,   -2.500000e+01,   5.000000e+00
     2,   5.000000e+00,   -1.500000e+01,   5.000000e+00
     3,   5.000000e+00,   -1.500000e+01,   0.000000e+00
     4,   5.000000e+00,   -2.500000e+01,   0.000000e+00
     5,   -5.000000e+00,   -2.500000e+01,   5.000000e+00
     6,   -5.000000e+00,   -1.500000e+01,   5.000000e+00
     7,   -5.000000e+00,   -1.500000e+01,   0.000000e+00
     8,   -5.000000e+00,   -2.500000e+01,   0.000000e+00
     9,   5.000000e+00,   -2.000000e+01,   5.000000e+00
     10,   5.000000e+00,   -1.500000e+01,   2.500000e+00
     11,   5.000000e+00,   -2.000000e+01,   0.000000e+00
     12,   5.000000e+00,   -2.500000e+01,   2.500000e+00
     13,   5.000000e+00,   -2.000000e+01,   2.500000e+00
     14,   0.000000e+00,   -2.500000e+01,   5.000000e+00
     15,   0.000000e+00,   -1.500000e+01,   5.000000e+00
     16,   0.000000e+00,   -1.500000e+01,   0.000000e+00
     17,   0.000000e+00,   -2.500000e+01,   0.000000e+00
     18,   0.000000e+00,   -2.000000e+01,   5.000000e+00
     19,   0.000000e+00,   -1.500000e+01,   2.500000e+00
     20,   0.000000e+00,   -2.000000e+01,   0.000000e+00
** ... 79 like lines cut
*Element, type=C3D8R
1, 1, 9, 13, 12, 14, 18, 22, 21
     2, 9, 2, 10, 13, 18, 15, 19, 22
     3, 13, 10, 3, 11, 22, 19, 16, 20
     4, 12, 13, 11, 4, 21, 22, 20, 17
     5, 14, 18, 22, 21, 5, 23, 27, 26
     6, 18, 15, 19, 22, 23, 6, 24, 27
     7, 22, 19, 16, 20, 27, 24, 7, 25
     8, 21, 22, 20, 17, 26, 27, 25, 8
     9, 2, 32, 35, 10, 15, 38, 41, 19
     10, 32, 28, 33, 35, 38, 36, 39, 41
     11, 35, 33, 29, 34, 41, 39, 37, 40
     12, 10, 35, 34, 3, 19, 41, 40, 16
     13, 15, 38, 41, 19, 6, 42, 45, 24
     14, 38, 36, 39, 41, 42, 30, 43, 45
     15, 41, 39, 37, 40, 45, 43, 31, 44
     16, 19, 41, 40, 16, 24, 45, 44, 7
     17, 28, 50, 53, 33, 36, 56, 59, 39
     18, 50, 46, 51, 53, 56, 54, 57, 59
     19, 53, 51, 47, 52, 59, 57, 55, 58
     20, 33, 53, 52, 29, 39, 59, 58, 37
** ... 20 like lines cut
*Nset, nset=Set-1, generate
  1,  99,   1
*Elset, elset=Set-1, generate
 1,  40,  1
*Nset, nset=Set-3, generate
  1,  99,   1
*Elset, elset=Set-3, generate
 1,  40,  1
** Section: Section-1
*Solid Section, elset=Set-1, material=steel_Ductile
,
*End Part
**  
**
** ASSEMBLY
**
*Assembly, name=Assembly
**  
*Instance, name=Part-1-1, part=Part-1
*End Instance
**  
*Nset, nset=Set-1, instance=Part-1-1
  1, 12, 4, 14, 21, 17, 5, 26, 8
*Elset, elset=Set-1, instance=Part-1-1
 1,
*Nset, nset=Set-2, instance=Part-1-1
  1, 12, 4, 14, 21, 17, 5, 26, 8
*Elset, elset=Set-2, instance=Part-1-1
 1,
*Nset, nset=Set-3, instance=Part-1-1
  82, 87, 83, 90, 93, 91, 84, 97, 85
*Elset, elset=Set-3, instance=Part-1-1
 5,
*End Assembly
*Amplitude, name=Amp-1
             0.,              0.,            0.01,              1.
** 
** MATERIALS
** 
*Material, name=steel_Elastic
*Density
 7.8e-09,
*Elastic
210000., 0.3
*Material, name=steel_Elastoplast
*Density
 7.8e-09,
*Elastic
210000., 0.3
*Plastic
 755.,   0.
 809., 0.01
 829., 0.02
 842.,  0.1
 895., 0.15
 922.,  0.4
 953.,   1.
1100.,   4.
*Material, name=steel_Ductile
*Density
 7.8e-09,
*Elastic
210000., 0.3
*Plastic
 755.,   0.
 809., 0.01
 829., 0.02
 842.,  0.1
 895., 0.15
 922.,  0.4
 953.,   1.
1100.,   4.
*Damage Initiation, criterion=DUCTILE
 1.0, 0., 30.
 0.4, 0.3, 30.
** 
** BOUNDARY CONDITIONS
** 
** Name: BC-1 Type: Symmetry/Antisymmetry/Encastre
*Boundary
Set-2, ENCASTRE
** ----------------------------------------------------------------
** 
** STEP: Step-1
** 
*Step, name=Step-1, nlgeom=YES
*Dynamic, Explicit
4.0e-07, 0.01
*Bulk Viscosity
0.06, 1.2
** 
** BOUNDARY CONDITIONS
** 
** Name: BC-2 Type: Displacement/Rotation
*Boundary, amplitude=Amp-1
Set-3, 1, 1
Set-3, 2, 2, 10.
Set-3, 3, 3
Set-3, 4, 4
Set-3, 5, 5
Set-3, 6, 6
** 
** OUTPUT REQUESTS
** 
*Restart, write, number interval=1, time marks=NO
** 
** FIELD OUTPUT: F-Output-1
** 
*Output, field, variable=PRESELECT
** 
** HISTORY OUTPUT: H-Output-1
** 
*Output, history, variable=PRESELECT
*End Step
