*Heading
** Job name: T10mmEx Model name: Model-1
** Generated by: Abaqus/CAE Learning Edition 2023
*Preprint, echo=NO, model=NO, history=NO, contact=NO
**
** PARTS
**
*Part, name=DOG-BONE
*Node
      1,          6.5,         -80.,           3.
      2,         -6.5,         -80.,           3.
      3,         -10.,  -87.5993423,           3.
      4,          10.,  -87.5993423,           3.
      5,         -6.5,         -80.,           0.
      6,         -10.,  -87.5993423,           0.
      7,          10.,  -87.5993423,           0.
      8,          6.5,         -80.,           0.
      9,          6.5,         -45.,           0.
     10,          6.5,         -10.,           0.
     11,          6.5,         -45.,           3.
     12,          6.5,         -10.,           3.
     13,         -6.5,         -45.,           0.
     14,         -6.5,         -10.,           0.
     15,         -6.5,         -10.,           3.
     16,         -6.5,         -45.,           3.
     17,          10.,  -2.40065789,           3.
     18,          10.,  -2.40065789,           0.
     19,         -10.,  -2.40065789,           0.
     20,         -10.,  -2.40065789,           3.
** ... 666 like lines cut
*Element, type=C3D8R
 1,   8,  59, 267,  67,   1,  41, 257,  54
 2,  59,  58, 268, 267,  41,  42, 258, 257
 3,  58,  57, 269, 268,  42,  43, 259, 258
 4,  57,  56, 270, 269,  43,  44, 260, 259
 5,  56,  55, 271, 270,  44,  45, 261, 260
 6,  55,   5,  61, 271,  45,   2,  46, 261
 7,  67, 267, 272,  68,  54, 257, 262,  53
 8, 267, 268, 273, 272, 257, 258, 263, 262
 9, 268, 269, 274, 273, 258, 259, 264, 263
10, 269, 270, 275, 274, 259, 260, 265, 264
11, 270, 271, 276, 275, 260, 261, 266, 265
12, 271,  61,  60, 276, 261,  46,  47, 266
13,  68, 272,  62,   7,  53, 262,  52,   4
14, 272, 273,  63,  62, 262, 263,  51,  52
15, 273, 274,  64,  63, 263, 264,  50,  51
16, 274, 275,  65,  64, 264, 265,  49,  50
17, 275, 276,  66,  65, 265, 266,  48,  49
18, 276,  60,   6,  66, 266,  47,   3,  48
 19,  41,  59, 372, 277,   1,   8,  69,  95
 20, 277, 372, 373, 278,  95,  69,  70,  94
** ... 268 like lines cut
*Nset, nset=Set-2, generate
   1,  686,    1
*Elset, elset=Set-2, generate
   1,  288,    1
** Section: Section-1
*Solid Section, elset=Set-2, material=STEEL
,
*End Part
**  
**
** ASSEMBLY
**
*Assembly, name=Assembly
**  
*Instance, name=DOG-BONE-1, part=DOG-BONE
*End Instance
**  
*Nset, nset=Set-8, instance=DOG-BONE-1
   3,   4,   6,   7,  31,  32,  33,  34,  35,  36,  37,  38,  39,  40,  48,  49
  50,  51,  52,  62,  63,  64,  65,  66, 213, 214, 215, 216, 217, 218, 219, 220
 221, 222, 223, 224, 225, 226, 227, 228, 229, 230, 231, 232, 233, 234, 235, 236
 237, 238, 239, 240, 241, 242, 243, 244, 245, 246, 247, 248, 249, 250, 251, 252
 253, 254, 255, 256, 587, 588, 589, 590, 591, 592, 593, 594, 595, 596, 597, 598
 599, 600, 601, 602, 603, 604, 605, 606, 607, 608, 609, 610, 611, 612, 613, 614
 615, 616, 617, 618, 619, 620, 621, 622, 623, 624, 625, 626, 627, 628, 629, 630
 631, 632, 633, 634, 635, 636, 637, 638, 639, 640, 641, 642, 643, 644, 645, 646
 647, 648, 649, 650, 651, 652, 653, 654, 655, 656, 657, 658, 659, 660, 661, 662
 663, 664, 665, 666, 667, 668, 669, 670, 671, 672, 673, 674, 675, 676, 677, 678
 679, 680, 681, 682, 683, 684, 685, 686
*Elset, elset=Set-8, instance=DOG-BONE-1, generate
 223,  288,    1
*Nset, nset=Set-9, instance=DOG-BONE-1
  17,  18,  19,  20,  21,  22,  23,  24,  25,  26,  27,  28,  29,  30, 159, 160
 161, 162, 163, 164, 165, 166, 167, 168, 169, 170, 171, 172, 173, 174, 175, 176
 177, 178, 179, 180, 181, 182, 183, 184, 185, 186, 187, 188, 189, 190, 191, 192
 193, 194, 195, 196, 197, 198, 199, 200, 201, 202, 203, 204, 205, 206, 207, 208
 209, 210, 211, 212, 487, 488, 489, 490, 491, 492, 493, 494, 495, 496, 497, 498
 499, 500, 501, 502, 503, 504, 505, 506, 507, 508, 509, 510, 511, 512, 513, 514
 515, 516, 517, 518, 519, 520, 521, 522, 523, 524, 525, 526, 527, 528, 529, 530
 531, 532, 533, 534, 535, 536, 537, 538, 539, 540, 541, 542, 543, 544, 545, 546
 547, 548, 549, 550, 551, 552, 553, 554, 555, 556, 557, 558, 559, 560, 561, 562
 563, 564, 565, 566, 567, 568, 569, 570, 571, 572, 573, 574, 575, 576, 577, 578
 579, 580, 581, 582, 583, 584, 585, 586
*Surface, type=ELEMENT, name=s_Surf-1
_s_Surf-1_S4, S4
_s_Surf-1_S6, S6
_s_Surf-1_S2, S2
_s_Surf-1_S3, S3
_s_Surf-1_S1, S1
*End Assembly
*Amplitude, name=Amp-1
             0.,              0.,              1.,              1.
*Amplitude, name=Amp-2
             0.,              0.,            0.001,              1.
** 
** MATERIALS
** 
*Material, name=STEEL
*Density
 7.8e-09,
*Elastic
210000., 0.3
*Plastic
 755.,   0.
 809., 0.01
 829., 0.02
 842.,  0.1
 895., 0.15
 922.,  0.4
 953.,   1.
1100.,   4.
*Damage Initiation, criterion=DUCTILE
  1.,  0., 30.
 0.5, 0.4, 30.
** 
** BOUNDARY CONDITIONS
** 
** Name: BC-1 Type: Symmetry/Antisymmetry/Encastre
*Boundary
Set-8, ENCASTRE
** ----------------------------------------------------------------
** 
** STEP: Step-1
** 
*Step, name=Step-1, nlgeom=YES
*Dynamic, Explicit, direct user control
1.0e-07, 0.001
*Bulk Viscosity
0.06, 1.2
** 
** BOUNDARY CONDITIONS
** 
** Name: BC-2 Type: Displacement/Rotation
*Boundary, amplitude=Amp-2
Set-9, 1, 1
Set-9, 2, 2, 10.
Set-9, 3, 3
Set-9, 4, 4
Set-9, 5, 5
Set-9, 6, 6
** 
** OUTPUT REQUESTS
** 
*Restart, write, number interval=1, time marks=NO
** 
** FIELD OUTPUT: F-Output-1
** 
*Output, field, variable=PRESELECT
** 
** HISTORY OUTPUT: H-Output-1
** 
*Output, history, variable=PRESELECT
*End Step
