*Heading
** Job name: T10mmEx Model name: Model-1
** Generated by: Abaqus/CAE Learning Edition 2023
*Preprint, echo=NO, model=NO, history=NO, contact=NO
**
** PARTS
**
*Part, name=DOG-BONE
*Node
1,   6.500000e+00,   -8.000000e+01,   0.000000e+00
2,   4.333333e+00,   -8.000000e+01,   0.000000e+00
3,   4.607410e+00,   -8.283783e+01,   0.000000e+00
4,   6.911116e+00,   -8.283783e+01,   0.000000e+00
5,   6.500000e+00,   -8.000000e+01,   3.000000e+00
6,   4.333333e+00,   -8.000000e+01,   3.000000e+00
7,   4.607410e+00,   -8.283783e+01,   3.000000e+00
8,   6.911116e+00,   -8.283783e+01,   3.000000e+00
9,   5.416667e+00,   -8.000000e+01,   0.000000e+00
10,   4.470372e+00,   -8.141891e+01,   0.000000e+00
11,   5.759263e+00,   -8.283783e+01,   0.000000e+00
12,   6.705558e+00,   -8.141891e+01,   0.000000e+00
13,   5.587965e+00,   -8.141891e+01,   0.000000e+00
14,   6.500000e+00,   -8.000000e+01,   1.500000e+00
15,   4.333333e+00,   -8.000000e+01,   1.500000e+00
16,   4.607410e+00,   -8.283783e+01,   1.500000e+00
17,   6.911116e+00,   -8.283783e+01,   1.500000e+00
18,   5.416667e+00,   -8.000000e+01,   1.500000e+00
19,   4.470372e+00,   -8.141891e+01,   1.500000e+00
20,   5.759263e+00,   -8.283783e+01,   1.500000e+00
** ... 3763 like lines cut
*Element, type=C3D8R
1, 1, 9, 13, 12, 14, 18, 22, 21
2, 9, 2, 10, 13, 18, 15, 19, 22
3, 13, 10, 3, 11, 22, 19, 16, 20
4, 12, 13, 11, 4, 21, 22, 20, 17
5, 14, 18, 22, 21, 5, 23, 27, 26
6, 18, 15, 19, 22, 23, 6, 24, 27
7, 22, 19, 16, 20, 27, 24, 7, 25
8, 21, 22, 20, 17, 26, 27, 25, 8
9, 2, 32, 35, 10, 15, 38, 41, 19
10, 32, 28, 33, 35, 38, 36, 39, 41
11, 35, 33, 29, 34, 41, 39, 37, 40
12, 10, 35, 34, 3, 19, 41, 40, 16
13, 15, 38, 41, 19, 6, 42, 45, 24
14, 38, 36, 39, 41, 42, 30, 43, 45
15, 41, 39, 37, 40, 45, 43, 31, 44
16, 19, 41, 40, 16, 24, 45, 44, 7
17, 28, 50, 53, 33, 36, 56, 59, 39
18, 50, 46, 51, 53, 56, 54, 57, 59
19, 53, 51, 47, 52, 59, 57, 55, 58
20, 33, 53, 52, 29, 39, 59, 58, 37
** ... 2284 like lines cut
*Nset, nset=Set-2, generate
   1,  3783,    1
*Elset, elset=Set-2, generate
   1,  2304,    1
** Section: Section-1
*Solid Section, elset=Set-2, material=STEEL
,
*End Part
**  
**
** ASSEMBLY
**
*Assembly, name=Assembly
**  
*Instance, name=DOG-BONE-1, part=DOG-BONE
*End Instance
**  
*Nset, nset=Set-8, instance=DOG-BONE-1
2926, 2927, 2928, 2929, 2931, 2934, 2935, 2937, 2941, 2944, 2945, 2947, 2949, 2951, 2954, 2956, 2957, 2959, 2961, 2963, 2966, 2968, 2969, 2971
2973, 2975, 2978, 2980, 2981, 2983, 2985, 2987, 2990, 2992, 2993, 2995, 2997, 2999, 3002, 3004, 3005, 3006, 3007, 3008, 3009, 3010, 3011, 3012
3013, 3014, 3015, 3016, 3017, 3018, 3019, 3020, 3021, 3022, 3023, 3024, 3025, 3026, 3027, 3028, 3029, 3030, 3031, 3032, 3033, 3034, 3035, 3036
3037, 3038, 3039, 3040, 3041, 3042, 3043, 3044, 3045, 3046, 3047, 3048, 3049, 3050, 3051, 3052, 3053, 3054, 3055, 3056, 3057, 3058, 3059, 3060
3061, 3062, 3063, 3064, 3065, 3066, 3067, 3068, 3069, 3070, 3071, 3072, 3073, 3074, 3075, 3076, 3077, 3078, 3079, 3080, 3081, 3082, 3083, 3084
3085, 3086, 3087, 3088, 3089, 3090, 3091, 3092, 3093, 3094, 3095, 3096, 3097, 3098, 3099, 3100, 3101, 3102, 3103, 3104, 3105, 3106, 3107, 3108
3109, 3110, 3111, 3112, 3113, 3114, 3115, 3116, 3117, 3118, 3119, 3120, 3121, 3122, 3123, 3124, 3125, 3126, 3127, 3128, 3129, 3130, 3131, 3132
3133, 3134, 3135, 3136, 3137, 3138, 3139, 3140, 3141, 3142, 3143, 3144, 3145, 3146, 3147, 3148, 3149, 3150, 3151, 3152, 3153, 3154, 3155, 3156
3157, 3158, 3159, 3160, 3161, 3162, 3163, 3164, 3165, 3166, 3167, 3168, 3169, 3170, 3171, 3172, 3173, 3174, 3175, 3176, 3177, 3178, 3179, 3180
3181, 3182, 3183, 3184, 3185, 3186, 3187, 3188, 3189, 3190, 3191, 3192, 3193, 3194, 3195, 3196, 3197, 3198, 3199, 3200, 3201, 3202, 3203, 3204
3205, 3206, 3207, 3208, 3209, 3210, 3211, 3212, 3213, 3214, 3215, 3216, 3217, 3218, 3219, 3220, 3221, 3222, 3223, 3224, 3225, 3226, 3227, 3228
3229, 3230, 3231, 3232, 3233, 3234, 3235, 3236, 3237, 3238, 3239, 3240, 3241, 3242, 3243, 3244, 3245, 3246, 3247, 3248, 3249, 3250, 3251, 3252
3253, 3254, 3255, 3256, 3257, 3258, 3259, 3260, 3261, 3262, 3263, 3264, 3265, 3266, 3267, 3268, 3269, 3270, 3271, 3272, 3273, 3274, 3275, 3276
3277, 3278, 3279, 3280, 3281, 3282, 3283, 3284, 3285, 3286, 3287, 3288, 3289, 3290, 3291, 3292, 3293, 3294, 3295, 3296, 3297, 3298, 3299, 3300
3301, 3302, 3303, 3304, 3305, 3306, 3307, 3308, 3309, 3310, 3311, 3312, 3313, 3314, 3315, 3316, 3317, 3318, 3319, 3320, 3321, 3322, 3323, 3324
3325, 3326, 3327, 3328, 3329, 3330, 3331, 3332, 3333, 3334, 3335, 3336, 3337, 3338, 3339, 3340, 3341, 3342, 3343, 3344, 3345, 3346, 3347, 3348
3349, 3350, 3351, 3352, 3353, 3354, 3355, 3356, 3357, 3358, 3359, 3360, 3361, 3362, 3363, 3364, 3365, 3366, 3367, 3368, 3369, 3370, 3371, 3372
3373, 3374, 3375, 3376, 3377, 3378, 3379, 3380, 3381, 3382, 3383, 3384, 3385, 3386, 3387, 3388, 3389, 3390, 3391, 3392, 3393, 3394, 3395, 3396
3397, 3398, 3399, 3400, 3401, 3402, 3403, 3404, 3405, 3406, 3407, 3408, 3409, 3410, 3411, 3412, 3413, 3414, 3415, 3416, 3417, 3418, 3419, 3420
3421, 3422, 3423, 3424, 3425, 3426, 3427, 3428, 3429, 3430, 3431, 3432, 3433, 3434, 3435, 3436, 3437, 3438, 3439, 3440, 3441, 3442, 3443, 3444
** ... 15 like lines cut
*Elset, elset=Set-8, instance=DOG-BONE-1, generate
 223,  288,    1
*Nset, nset=Set-9, instance=DOG-BONE-1
2068, 2069, 2070, 2071, 2072, 2073, 2074, 2075, 2076, 2077, 2078, 2079, 2080, 2081
2082, 2083, 2084, 2085, 2086, 2087, 2088, 2089, 2090, 2091, 2092, 2093, 2094, 2095
2096, 2097, 2098, 2099, 2100, 2101, 2102, 2103, 2104, 2105, 2106, 2107, 2108, 2109
2110, 2111, 2112, 2113, 2114, 2115, 2116, 2117, 2118, 2119, 2120, 2121, 2122, 2123
2124, 2125, 2126, 2127, 2128, 2129, 2130, 2131, 2132, 2133, 2134, 2135, 2136, 2137
2138, 2139, 2140, 2141, 2142, 2143, 2144, 2145, 2146, 2147, 2148, 2149, 2150, 2151
2152, 2153, 2154, 2155, 2156, 2157, 2158, 2159, 2160, 2161, 2162, 2163, 2164, 2165
2166, 2167, 2168, 2169, 2170, 2171, 2172, 2173, 2174, 2175, 2176, 2177, 2178, 2179
2180, 2181, 2182, 2183, 2184, 2185, 2186, 2187, 2188, 2189, 2190, 2191, 2192, 2193
2194, 2195, 2196, 2197, 2198, 2199, 2200, 2201, 2202, 2203, 2204, 2205, 2206, 2207
2208, 2209, 2210, 2211, 2212, 2213, 2214, 2215, 2216, 2217, 2218, 2219, 2220, 2221
2222, 2223, 2224, 2225, 2226, 2227, 2228, 2229, 2230, 2231, 2232, 2233, 2234, 2235
2236, 2237, 2238, 2239, 2240, 2241, 2242, 2243, 2244, 2245, 2246, 2247, 2248, 2249
2250, 2251, 2252, 2253, 2254, 2255, 2256, 2266, 2267, 2268, 2269, 2270, 2271, 2272
2273, 2274, 2275, 2276, 2277, 2278, 2279, 2280, 2281, 2282, 2283, 2284, 2285, 2286
2287, 2288, 2289, 2290, 2291, 2292, 2293, 2294, 2295, 2296, 2297, 2298, 2299, 2300
2301, 2302, 2303, 2304, 2305, 2306, 2307, 2308, 2309, 2310, 2311, 2312, 2313, 2314
2315, 2316, 2317, 2318, 2319, 2320, 2321, 2322, 2323, 2324, 2325, 2326, 2327, 2328
2329, 2330, 2331, 2332, 2333, 2334, 2335, 2336, 2337, 2338, 2339, 2340, 2341, 2342
2343, 2344, 2345, 2346, 2347, 2348, 2349, 2350, 2351, 2352, 2353, 2354, 2355, 2356
** ... 25 like lines cut
*Surface, type=ELEMENT, name=s_Surf-1
_s_Surf-1_S4, S4
_s_Surf-1_S6, S6
_s_Surf-1_S2, S2
_s_Surf-1_S3, S3
_s_Surf-1_S1, S1
*End Assembly
*Amplitude, name=Amp-1
             0.,              0.,              1.,              1.
*Amplitude, name=Amp-2
             0.,              0.,            0.001,              1.
** 
** MATERIALS
** 
*Material, name=STEEL
*Density
 7.8e-09,
*Elastic
210000., 0.3
*Plastic
 755.,   0.
 809., 0.01
 829., 0.02
 842.,  0.1
 895., 0.15
 922.,  0.4
 953.,   1.
1100.,   4.
*Damage Initiation, criterion=DUCTILE
  1.,  0., 30.
 0.5, 0.4, 30.
** 
** BOUNDARY CONDITIONS
** 
** Name: BC-1 Type: Symmetry/Antisymmetry/Encastre
*Boundary
Set-8, ENCASTRE
** ----------------------------------------------------------------
** 
** STEP: Step-1
** 
*Step, name=Step-1, nlgeom=YES
*Dynamic, Explicit
1.0e-07, 0.001
*Bulk Viscosity
0.06, 1.2
** 
** BOUNDARY CONDITIONS
** 
** Name: BC-2 Type: Displacement/Rotation
*Boundary, amplitude=Amp-2
Set-9, 1, 1
Set-9, 2, 2, 10.
Set-9, 3, 3
Set-9, 4, 4
Set-9, 5, 5
Set-9, 6, 6
** 
** OUTPUT REQUESTS
** 
*Restart, write, number interval=1, time marks=NO
** 
** FIELD OUTPUT: F-Output-1
** 
*Output, field, variable=PRESELECT
** 
** HISTORY OUTPUT: H-Output-1
** 
*Output, history, variable=PRESELECT
*End Step
