*Heading
** Job name: Charpy-Solid Model name: Model-1
** Generated by: Abaqus/CAE Learning Edition 2023
*Preprint, echo=NO, model=NO, history=NO, contact=NO
**
** PARTS
**
*Part, name=PENDULUM
*Node
      1,          -5.,          20.,           0.
      2,         -20.,          20.,           0.
      3,  -10.7405615,   9.37927246,           0.
      4,  -13.2015972,   8.45735741,           0.
      5,  -11.7984028,   8.45735741,           0.
      6,  -14.2594385,   9.37927246,           0.
      7,         -10.,          20.,           0.
      8,         -15.,          20.,           0.
      9,  -8.82704067,   12.9195156,           0.
     10,  -6.91352034,   16.4597569,           0.
     11,  -18.0864792,   16.4597569,           0.
     12,  -16.1729584,   12.9195156,           0.
     13,   -10.541441,   17.0714588,           0.
     14,  -12.9725666,   10.8451223,           0.
     15,  -14.5475836,   17.0676403,           0.
     16,  -13.8993311,   13.7748985,           0.
     17,  -11.7126789,   11.2623768,           0.
     18,   -11.127636,   13.8307018,           0.
     19,          -5.,          20.,           5.
     20,         -20.,          20.,           5.
** ... 52 like lines cut
*Element, type=C3D8R
 1, 16, 15, 11, 12, 34, 33, 29, 30
 2, 12,  6, 14, 16, 30, 24, 32, 34
 3,  5, 14,  6,  4, 23, 32, 24, 22
 4, 13, 10,  1,  7, 31, 28, 19, 25
 5, 18,  9, 10, 13, 36, 27, 28, 31
 6, 15,  8,  2, 11, 33, 26, 20, 29
 7, 15, 13,  7,  8, 33, 31, 25, 26
 8, 18, 16, 14, 17, 36, 34, 32, 35
 9,  3,  9, 18, 17, 21, 27, 36, 35
10, 13, 15, 16, 18, 31, 33, 34, 36
11, 17, 14,  5,  3, 35, 32, 23, 21
12, 34, 33, 29, 30, 52, 51, 47, 48
13, 30, 24, 32, 34, 48, 42, 50, 52
14, 23, 32, 24, 22, 41, 50, 42, 40
15, 31, 28, 19, 25, 49, 46, 37, 43
16, 36, 27, 28, 31, 54, 45, 46, 49
17, 33, 26, 20, 29, 51, 44, 38, 47
18, 33, 31, 25, 26, 51, 49, 43, 44
19, 36, 34, 32, 35, 54, 52, 50, 53
20, 21, 27, 36, 35, 39, 45, 54, 53
** ... 13 like lines cut
*Nset, nset=Set-1, generate
  1,  72,   1
*Elset, elset=Set-1, generate
  1,  33,   1
** Section: STEEL-Elastic
*Solid Section, elset=Set-1, material=STEEL-Elastic
,
*End Part
**  
*Part, name=PLATE
*Node
      1,          10.,           0.,          15.
      2,          10.,           5.,          15.
      3,          10.,          10.,          15.
      4,          10.,           0.,          10.
      5,          10.,           5.,          10.
      6,          10.,          10.,          10.
      7,          10.,           0.,           5.
      8,          10.,           5.,           5.
      9,          10.,          10.,           5.
     10,          10.,           0.,           0.
     11,          10.,           5.,           0.
     12,          10.,          10.,           0.
     13,          15.,           0.,          15.
     14,          15.,           5.,          15.
     15,          15.,          10.,          15.
     16,          15.,           0.,          10.
     17,          15.,           5.,          10.
     18,          15.,          10.,          10.
     19,          15.,           0.,           5.
     20,          15.,           5.,           5.
** ... 4 like lines cut
*Element, type=C3D8R
1, 13, 14, 17, 16,  1,  2,  5,  4
2, 14, 15, 18, 17,  2,  3,  6,  5
3, 16, 17, 20, 19,  4,  5,  8,  7
4, 17, 18, 21, 20,  5,  6,  9,  8
5, 19, 20, 23, 22,  7,  8, 11, 10
6, 20, 21, 24, 23,  8,  9, 12, 11
*Nset, nset=Set-1, generate
  1,  24,   1
*Elset, elset=Set-1, generate
 1,  6,  1
** Section: STEEL-Elastic
*Solid Section, elset=Set-1, material=STEEL-Elastic
,
*End Part
**  
*Part, name=SPECIMENT
*Node
      1,         32.5,           5.,          10.
      2,         32.5,           5.,           0.
      3,         37.5,           5.,           0.
      4,         37.5,           5.,          10.
      5,         32.5,          15.,           0.
      6,         37.5,          15.,           0.
      7,         37.5,          15.,          10.
      8,         32.5,          15.,          10.
      9,        -32.5,          15.,           0.
     10,        -32.5,          15.,          10.
     11,           0.,          15.,          10.
     12,           0.,          15.,           0.
     13,        -32.5,           5.,          10.
     14,        -32.5,           5.,           0.
     15,          -5.,           5.,           0.
     16,          -5.,           5.,          10.
     17,           0.,          10.,           0.
     18,           0.,          10.,          10.
     19,        -37.5,           5.,          10.
     20,        -37.5,           5.,           0.
** ... 750 like lines cut
*Element, type=C3D8R
 1,  46, 209, 549, 203,   1,  25, 197,  32
 2, 209, 210, 550, 549,  25,  26, 198, 197
 3, 210, 211, 551, 550,  26,  27, 199, 198
 4, 211,  50, 206, 551,  27,   2,  28, 199
 5, 203, 549, 218,  41,  32, 197,  31,   4
 6, 549, 550, 219, 218, 197, 198,  30,  31
 7, 550, 551, 220, 219, 198, 199,  29,  30
 8, 551, 206,  49, 220, 199,  28,   3,  29
 9,  45, 212, 552, 204,  46, 209, 549, 203
10, 212, 213, 553, 552, 209, 210, 550, 549
11, 213, 214, 554, 553, 210, 211, 551, 550
12, 214,  51, 207, 554, 211,  50, 206, 551
13, 204, 552, 221,  42, 203, 549, 218,  41
14, 552, 553, 222, 221, 549, 550, 219, 218
15, 553, 554, 223, 222, 550, 551, 220, 219
16, 554, 207,  48, 223, 551, 206,  49, 220
17,  44, 215, 555, 205,  45, 212, 552, 204
18, 215, 216, 556, 555, 212, 213, 553, 552
19, 216, 217, 557, 556, 213, 214, 554, 553
20, 217,  52, 208, 557, 214,  51, 207, 554
** ... 448 like lines cut
*Nset, nset=Set-1, generate
   1,  770,    1
*Elset, elset=Set-1, generate
   1,  468,    1
** Section: STEEL
*Solid Section, elset=Set-1, material=STEEL
,
*End Part
**  
**
** ASSEMBLY
**
*Assembly, name=Assembly
**  
*Instance, name=PENDULUM-1, part=PENDULUM
        12.5,     6.669741,         -2.5
*End Instance
**  
*Instance, name=SPECIMENT-1, part=SPECIMENT
*End Instance
**  
*Instance, name=PLATE-1, part=PLATE
        17.5,          -5.,         -2.5
*End Instance
**  
*Instance, name=PLATE-2, part=PLATE
       -42.5,          -5.,         -2.5
*End Instance
**  
*Nset, nset=Set-3, instance=PLATE-1, generate
 1,  22,  3
*Elset, elset=Set-3, instance=PLATE-1
 1,
*Nset, nset=Set-4, instance=PLATE-2, generate
 1,  22,  3
*Elset, elset=Set-4, instance=PLATE-2
 1,
*Nset, nset=Set-5, instance=PENDULUM-1, generate
  1,  72,   1
*Elset, elset=Set-5, instance=PENDULUM-1, generate
  1,  33,   1
*Elset, elset=_CP-2-PENDULUM-1_S4, internal, instance=PENDULUM-1
  4,  5, 15, 16, 26, 27
*Elset, elset=_CP-2-PENDULUM-1_S3, internal, instance=PENDULUM-1
  2,  9, 13, 20, 24, 31
*Elset, elset=_CP-2-PENDULUM-1_S5, internal, instance=PENDULUM-1
  1,  3,  6, 11, 12, 14, 17, 22, 23, 25, 28, 33
*Elset, elset=_CP-2-PENDULUM-1_S6, internal, instance=PENDULUM-1, generate
  3,  25,  11
*Surface, type=ELEMENT, name=CP-2-PENDULUM-1
_CP-2-PENDULUM-1_S4, S4
_CP-2-PENDULUM-1_S3, S3
_CP-2-PENDULUM-1_S6, S6
_CP-2-PENDULUM-1_S5, S5
*Elset, elset=_CP-3-PLATE-1_S4, internal, instance=PLATE-1, generate
 2,  6,  2
*Surface, type=ELEMENT, name=CP-3-PLATE-1
_CP-3-PLATE-1_S4, S4
*Elset, elset=_CP-4-PLATE-2_S4, internal, instance=PLATE-2, generate
 2,  6,  2
*Surface, type=ELEMENT, name=CP-4-PLATE-2
_CP-4-PLATE-2_S4, S4
*Elset, elset=_CP-4-SPECIMENT-1_S3, internal, instance=SPECIMENT-1
 357, 358, 361, 362, 365, 366, 369, 370, 373, 374, 377, 378, 381, 382, 385, 386
 389, 390, 393, 394, 397, 398
*Elset, elset=_CP-4-SPECIMENT-1_S4, internal, instance=SPECIMENT-1, generate
 402,  444,    2
*Elset, elset=_CP-4-SPECIMENT-1_S2, internal, instance=SPECIMENT-1
  33,  34,  35,  36,  37,  38,  39,  40,  41,  42,  43,  44,  45,  46,  47,  48
  49,  50,  51,  52,  53,  54,  77,  78,  79,  80,  81,  82,  83,  84,  85,  86
  87,  88,  89,  90,  91,  92,  93,  94,  95,  96,  97,  98, 121, 122, 125, 126
 445, 446, 447, 448, 453, 454, 455, 456
*Elset, elset=_CP-4-SPECIMENT-1_S1, internal, instance=SPECIMENT-1
  25,  26,  27,  28,  29,  30,  31,  32, 253, 254, 255, 256, 257, 258, 259, 260
*Surface, type=ELEMENT, name=CP-4-SPECIMENT-1
_CP-4-SPECIMENT-1_S3, S3
_CP-4-SPECIMENT-1_S4, S4
_CP-4-SPECIMENT-1_S2, S2
_CP-4-SPECIMENT-1_S1, S1
*Elset, elset=_CP-5-SPECIMENT-1_S2, internal, instance=SPECIMENT-1
   1,   2,   3,   4,   5,   6,   7,   8, 261, 262, 263, 264, 265, 266, 267, 268
 269, 270, 271, 272, 273, 274, 275, 276, 277, 278, 279, 280, 281, 282, 305, 306
 307, 308, 309, 310, 311, 312, 313, 314, 315, 316, 317, 318, 319, 320, 321, 322
 323, 324, 325, 326, 349, 350, 353, 354
*Surface, type=ELEMENT, name=CP-5-SPECIMENT-1
_CP-5-SPECIMENT-1_S2, S2
*Elset, elset=_CP-6-SPECIMENT-1_S2, internal, instance=SPECIMENT-1
 217, 218, 221, 222, 229, 230, 231, 232, 233, 234, 235, 236
*Elset, elset=_CP-6-SPECIMENT-1_S3, internal, instance=SPECIMENT-1
 129, 130, 133, 134, 137, 138, 141, 142, 145, 146, 149, 150, 153, 154, 157, 158
 161, 162, 165, 166, 169, 170
*Elset, elset=_CP-6-SPECIMENT-1_S4, internal, instance=SPECIMENT-1, generate
 174,  216,    2
*Surface, type=ELEMENT, name=CP-6-SPECIMENT-1
_CP-6-SPECIMENT-1_S2, S2
_CP-6-SPECIMENT-1_S3, S3
_CP-6-SPECIMENT-1_S4, S4
*End Assembly
*Amplitude, name=Amp-1
             0.,              0.,              0.001,              1.
** 
** MATERIALS
** 
*Material, name=STEEL
*Damage Initiation, criterion=DUCTILE
  1.,  0., 30.
 0.5, 0.4, 30.
*Damage Evolution, type=DISPLACEMENT
 0.02,
*Density
 7.8e-09,
*Elastic
210000., 0.3
*Plastic
 755.,   0.
 809., 0.01
 829., 0.02
 842.,  0.1
 895., 0.15
 922.,  0.4
 953.,   1.
1100.,   4.
*Material, name=STEEL-Elastic
*Density
 7.8e-09,
*Elastic
210000., 0.3
** 
** INTERACTION PROPERTIES
** 
*Surface Interaction, name=IntProp-1
*Friction
 0.2,
*Surface Behavior, pressure-overclosure=HARD
** ----------------------------------------------------------------
** 
** STEP: Step-1
** 
*Step, name=Step-1, nlgeom=YES
*Dynamic, Explicit
1.0e-07, 0.001
*Bulk Viscosity
0.06, 1.2
** Mass Scaling: Semi-Automatic
**               Whole Model
** Fixed Mass Scaling, dt=0.0001, type=below min
** 
** BOUNDARY CONDITIONS
** 
** Name: BC-1 Type: Symmetry/Antisymmetry/Encastre
*Boundary
Set-3, ENCASTRE
** Name: BC-2 Type: Symmetry/Antisymmetry/Encastre
*Boundary
Set-4, ENCASTRE
** Name: BC-3 Type: Displacement/Rotation
*Boundary, amplitude=Amp-1
Set-5, 1, 1
Set-5, 2, 2, -30.
Set-5, 3, 3
Set-5, 4, 4
Set-5, 5, 5
Set-5, 6, 6
** 
** INTERACTIONS
** 
** Interaction: CP-1-SPECIMENT-1-PENDULUM-1
*Contact Pair, interaction=IntProp-1, mechanical constraint=KINEMATIC, cpset=CP-1-SPECIMENT-1-PENDULUM-1
CP-4-SPECIMENT-1, CP-2-PENDULUM-1
** Interaction: CP-2-SPECIMENT-1-PLATE-1
*Contact Pair, interaction=IntProp-1, mechanical constraint=KINEMATIC, cpset=CP-2-SPECIMENT-1-PLATE-1
CP-5-SPECIMENT-1, CP-3-PLATE-1
** Interaction: CP-3-SPECIMENT-1-PLATE-2
*Contact Pair, interaction=IntProp-1, mechanical constraint=KINEMATIC, cpset=CP-3-SPECIMENT-1-PLATE-2
CP-6-SPECIMENT-1, CP-4-PLATE-2
** 
** OUTPUT REQUESTS
** 
*Restart, write, number interval=1, time marks=NO
** 
** FIELD OUTPUT: F-Output-1
** 
*Output, field
*Node Output
A, RF, TIEADJUST, TIEDSTATUS, U, V
*Element Output, directions=YES
BURNF, DBURNF, DENSITY, DENSITYVAVG, EACTIVE, EMSF, ESDV, EVF, FV, LE, MFR, PE, PEEQ, PEEQVAVG, PEVAVG, RHOE
RHOP, S, SDV, STATUS, SVAVG, UVARM
*Contact Output
CSTRESS, 
** 
** HISTORY OUTPUT: H-Output-1
** 
*Output, history, variable=PRESELECT
*End Step
