*Heading
** Job name: crash-tube Model name: Model-1
** Generated by: Abaqus/CAE Learning Edition 2023
*Preprint, echo=NO, model=NO, history=NO, contact=NO
**
** PARTS
**
*Part, name=SquareTube
*Node
1,   -3.729289e+01,   3.729289e+01,   3.500000e+02
2,   -3.166667e+01,   3.700000e+01,   3.500000e+02
3,   -3.166667e+01,   3.700000e+01,   3.439655e+02
4,   -3.729289e+01,   3.729289e+01,   3.439655e+02
5,   -3.870711e+01,   3.870711e+01,   3.500000e+02
6,   -3.166667e+01,   3.900000e+01,   3.500000e+02
7,   -3.166667e+01,   3.900000e+01,   3.439655e+02
8,   -3.870711e+01,   3.870711e+01,   3.439655e+02
9,   -2.533333e+01,   3.700000e+01,   3.500000e+02
10,   -2.533333e+01,   3.700000e+01,   3.439655e+02
11,   -2.533333e+01,   3.900000e+01,   3.500000e+02
12,   -2.533333e+01,   3.900000e+01,   3.439655e+02
13,   -2.533333e+01,   3.700000e+01,   3.379310e+02
14,   -3.166667e+01,   3.700000e+01,   3.379310e+02
15,   -2.533333e+01,   3.900000e+01,   3.379310e+02
16,   -3.166667e+01,   3.900000e+01,   3.379310e+02
17,   -3.729289e+01,   3.729289e+01,   3.379310e+02
18,   -3.870711e+01,   3.870711e+01,   3.379310e+02
19,   -1.900000e+01,   3.700000e+01,   3.500000e+02
20,   -1.900000e+01,   3.700000e+01,   3.439655e+02
** ... 5644 like lines cut
*Element, type=C3D8R
1, 1, 2, 3, 4, 5, 6, 7, 8
2, 2, 9, 10, 3, 6, 11, 12, 7
3, 3, 10, 13, 14, 7, 12, 15, 16
4, 4, 3, 14, 17, 8, 7, 16, 18
5, 9, 19, 20, 10, 11, 21, 22, 12
6, 19, 23, 24, 20, 21, 25, 26, 22
7, 20, 24, 27, 28, 22, 26, 29, 30
8, 10, 20, 28, 13, 12, 22, 30, 15
9, 23, 31, 32, 24, 25, 33, 34, 26
10, 31, 35, 36, 32, 33, 37, 38, 34
11, 32, 36, 39, 40, 34, 38, 41, 42
12, 24, 32, 40, 27, 26, 34, 42, 29
13, 35, 43, 44, 36, 37, 45, 46, 38
14, 43, 47, 48, 44, 45, 49, 50, 46
15, 44, 48, 51, 52, 46, 50, 53, 54
16, 36, 44, 52, 39, 38, 46, 54, 41
17, 47, 55, 56, 48, 49, 57, 58, 50
18, 55, 59, 60, 56, 57, 61, 62, 58
19, 56, 60, 63, 64, 58, 62, 65, 66
20, 48, 56, 64, 51, 50, 58, 66, 53
** ... 2764 like lines cut
*Nset, nset=Set-1, generate
   1,  5664,    1
*Elset, elset=Set-1, generate
   1,  2784,    1
** Section: Tube
*Solid Section, elset=Set-1, material=Aluminum
,
*End Part
**  
*Part, name=TopPlate
*Node
      1,          75.,         -75.,          10.
      2,          60.,         -75.,          10.
      3,          45.,         -75.,          10.
      4,          30.,         -75.,          10.
      5,          15.,         -75.,          10.
      6,           0.,         -75.,          10.
      7,         -15.,         -75.,          10.
      8,         -30.,         -75.,          10.
      9,         -45.,         -75.,          10.
     10,         -60.,         -75.,          10.
     11,         -75.,         -75.,          10.
     12,          75.,         -75.,           0.
     13,          60.,         -75.,           0.
     14,          45.,         -75.,           0.
     15,          30.,         -75.,           0.
     16,          15.,         -75.,           0.
     17,           0.,         -75.,           0.
     18,         -15.,         -75.,           0.
     19,         -30.,         -75.,           0.
     20,         -45.,         -75.,           0.
** ... 222 like lines cut
*Element, type=C3D8R
  1,  23,  24,  35,  34,   1,   2,  13,  12
  2,  24,  25,  36,  35,   2,   3,  14,  13
  3,  25,  26,  37,  36,   3,   4,  15,  14
  4,  26,  27,  38,  37,   4,   5,  16,  15
  5,  27,  28,  39,  38,   5,   6,  17,  16
  6,  28,  29,  40,  39,   6,   7,  18,  17
  7,  29,  30,  41,  40,   7,   8,  19,  18
  8,  30,  31,  42,  41,   8,   9,  20,  19
  9,  31,  32,  43,  42,   9,  10,  21,  20
 10,  32,  33,  44,  43,  10,  11,  22,  21
 11,  45,  46,  57,  56,  23,  24,  35,  34
 12,  46,  47,  58,  57,  24,  25,  36,  35
 13,  47,  48,  59,  58,  25,  26,  37,  36
 14,  48,  49,  60,  59,  26,  27,  38,  37
 15,  49,  50,  61,  60,  27,  28,  39,  38
 16,  50,  51,  62,  61,  28,  29,  40,  39
 17,  51,  52,  63,  62,  29,  30,  41,  40
 18,  52,  53,  64,  63,  30,  31,  42,  41
 19,  53,  54,  65,  64,  31,  32,  43,  42
 20,  54,  55,  66,  65,  32,  33,  44,  43
** ... 80 like lines cut
*Nset, nset=Set-1, generate
  1,  242,   1
*Elset, elset=Set-1, generate
  1,  100,   1
** Section: Plate
*Solid Section, elset=Set-1, material=STEEL
,
*End Part
**  
**
** ASSEMBLY
**
*Assembly, name=Assembly
**  
*Instance, name=SquareTube-1, part=SquareTube
*End Instance
**  
*Instance, name=TopPlate-1, part=TopPlate
          0.,           0.,         -10.
*End Instance
**  
*Nset, nset=Set-2, instance=SquareTube-1
1, 2, 5, 6, 9, 11, 19, 21, 23, 25, 31, 33, 35, 37, 43, 45, 47, 49, 55, 57, 59, 61, 67, 69, 71, 73, 
1535, 1537, 1539, 1541, 1547, 1549, 1551, 1553, 1559, 1561, 1563, 1565, 1571, 1573, 1575, 1577, 1583, 
1585, 1587, 1589, 1595, 1597, 1599, 1601, 2951, 2953, 2955, 2957, 2963, 2965, 2967, 2969, 2975, 2977, 
2979, 2981, 2987, 2989, 2991, 2993, 2999, 3001, 3003, 3005, 3011, 3013, 3015, 3017, 4367, 4369, 4371, 
4373, 4379, 4381, 4383, 4385, 4391, 4393, 4395, 4397, 4403, 4405, 4407, 4409, 4415, 4417, 4419, 4421, 4427, 4429
*Nset, nset=Set-3, instance=TopPlate-1, generate
  1,  242,   1
*Elset, elset=Set-3, instance=TopPlate-1, generate
  1,  100,   1
*End Assembly
*Amplitude, name=Amp-1
             0.,              0.,            0.01,              1.
** 
** MATERIALS
** 
*Material, name=Aluminum
*Density
 2.7e-09,
*Elastic
68210., 0.3
*Plastic
 80.,    0.
115., 0.024
139., 0.049
150., 0.074
158., 0.099
167., 0.124
171., 0.149
173., 0.174
*Material, name=STEEL
*Density
 7.8e-09,
*Elastic
210000., 0.3
** 
** INTERACTION PROPERTIES
** 
*Surface Interaction, name=IntProp-1
*Friction
 0.2,
** 
** BOUNDARY CONDITIONS
** 
** Name: BC-1 Type: Symmetry/Antisymmetry/Encastre
*Boundary
Set-2, ENCASTRE
** ----------------------------------------------------------------
** 
** STEP: Crash
** 
*Step, name=Crash, nlgeom=YES
*Dynamic, Explicit
2.5e-07, 0.01
*Bulk Viscosity
0.06, 1.2
** 
** BOUNDARY CONDITIONS
** 
** Name: BC-2 Type: Displacement/Rotation
*Boundary, amplitude=Amp-1
Set-3, 1, 1
Set-3, 2, 2
Set-3, 3, 3, 300.
Set-3, 4, 4
Set-3, 5, 5
Set-3, 6, 6
** 
** INTERACTIONS
** 
** Interaction: Int-1
*Contact, op=NEW
*Contact Inclusions, ALL EXTERIOR, HAKAIoption=self-contact
*Contact Property Assignment
 ,  , IntProp-1
** 
** OUTPUT REQUESTS
** 
*Restart, write, number interval=1, time marks=NO
** 
** FIELD OUTPUT: F-Output-1
** 
*Output, field, variable=PRESELECT
** 
** HISTORY OUTPUT: H-Output-1
** 
*Output, history, variable=PRESELECT
*End Step
