*Heading
** Job name: crash-tube Model name: Model-1
** Generated by: 
*Preprint, echo=NO, model=NO, history=NO, contact=NO
**
** PARTS
**
*Part, name=SquareTube
*Node
1,   -3.729289e+01,   3.729289e+01,   3.500000e+02
2,   -2.533333e+01,   3.700000e+01,   3.500000e+02
3,   -2.533333e+01,   3.700000e+01,   3.379310e+02
4,   -3.729289e+01,   3.729289e+01,   3.379310e+02
5,   -3.870711e+01,   3.870711e+01,   3.500000e+02
6,   -2.533333e+01,   3.900000e+01,   3.500000e+02
7,   -2.533333e+01,   3.900000e+01,   3.379310e+02
8,   -3.870711e+01,   3.870711e+01,   3.379310e+02
9,   -1.266667e+01,   3.700000e+01,   3.500000e+02
10,   -1.266667e+01,   3.700000e+01,   3.379310e+02
11,   -1.266667e+01,   3.900000e+01,   3.500000e+02
12,   -1.266667e+01,   3.900000e+01,   3.379310e+02
13,   0.000000e+00,   3.700000e+01,   3.500000e+02
14,   0.000000e+00,   3.700000e+01,   3.379310e+02
15,   0.000000e+00,   3.900000e+01,   3.500000e+02
16,   0.000000e+00,   3.900000e+01,   3.379310e+02
17,   1.266667e+01,   3.700000e+01,   3.500000e+02
18,   1.266667e+01,   3.700000e+01,   3.379310e+02
19,   1.266667e+01,   3.900000e+01,   3.500000e+02
20,   1.266667e+01,   3.900000e+01,   3.379310e+02
** ... 1420 like lines cut
*Element, type=C3D8R
1, 1, 2, 3, 4, 5, 6, 7, 8
2, 2, 9, 10, 3, 6, 11, 12, 7
3, 9, 13, 14, 10, 11, 15, 16, 12
4, 13, 17, 18, 14, 15, 19, 20, 16
5, 17, 21, 22, 18, 19, 23, 24, 20
6, 21, 25, 26, 22, 23, 27, 28, 24
7, 4, 3, 29, 30, 8, 7, 31, 32
8, 3, 10, 33, 29, 7, 12, 34, 31
9, 10, 14, 35, 33, 12, 16, 36, 34
10, 14, 18, 37, 35, 16, 20, 38, 36
11, 18, 22, 39, 37, 20, 24, 40, 38
12, 22, 26, 41, 39, 24, 28, 42, 40
13, 30, 29, 43, 44, 32, 31, 45, 46
14, 29, 33, 47, 43, 31, 34, 48, 45
15, 33, 35, 49, 47, 34, 36, 50, 48
16, 35, 37, 51, 49, 36, 38, 52, 50
17, 37, 39, 53, 51, 38, 40, 54, 52
18, 39, 41, 55, 53, 40, 42, 56, 54
19, 44, 43, 57, 58, 46, 45, 59, 60
20, 43, 47, 61, 57, 45, 48, 62, 59
** ... 676 like lines cut
*Nset, nset=Set-1, generate
   1,  1440,    1
*Elset, elset=Set-1, generate
   1,  696,    1
** Section: Tube
*Solid Section, elset=Set-1, material=Aluminum
,
*End Part
**  
*Part, name=TopPlate
*Node
      1,          75.,         -75.,          10.
      2,          60.,         -75.,          10.
      3,          45.,         -75.,          10.
      4,          30.,         -75.,          10.
      5,          15.,         -75.,          10.
      6,           0.,         -75.,          10.
      7,         -15.,         -75.,          10.
      8,         -30.,         -75.,          10.
      9,         -45.,         -75.,          10.
     10,         -60.,         -75.,          10.
     11,         -75.,         -75.,          10.
     12,          75.,         -75.,           0.
     13,          60.,         -75.,           0.
     14,          45.,         -75.,           0.
     15,          30.,         -75.,           0.
     16,          15.,         -75.,           0.
     17,           0.,         -75.,           0.
     18,         -15.,         -75.,           0.
     19,         -30.,         -75.,           0.
     20,         -45.,         -75.,           0.
** ... 222 like lines cut
*Element, type=C3D8R
  1,  23,  24,  35,  34,   1,   2,  13,  12
  2,  24,  25,  36,  35,   2,   3,  14,  13
  3,  25,  26,  37,  36,   3,   4,  15,  14
  4,  26,  27,  38,  37,   4,   5,  16,  15
  5,  27,  28,  39,  38,   5,   6,  17,  16
  6,  28,  29,  40,  39,   6,   7,  18,  17
  7,  29,  30,  41,  40,   7,   8,  19,  18
  8,  30,  31,  42,  41,   8,   9,  20,  19
  9,  31,  32,  43,  42,   9,  10,  21,  20
 10,  32,  33,  44,  43,  10,  11,  22,  21
 11,  45,  46,  57,  56,  23,  24,  35,  34
 12,  46,  47,  58,  57,  24,  25,  36,  35
 13,  47,  48,  59,  58,  25,  26,  37,  36
 14,  48,  49,  60,  59,  26,  27,  38,  37
 15,  49,  50,  61,  60,  27,  28,  39,  38
 16,  50,  51,  62,  61,  28,  29,  40,  39
 17,  51,  52,  63,  62,  29,  30,  41,  40
 18,  52,  53,  64,  63,  30,  31,  42,  41
 19,  53,  54,  65,  64,  31,  32,  43,  42
 20,  54,  55,  66,  65,  32,  33,  44,  43
** ... 80 like lines cut
*Nset, nset=Set-1, generate
  1,  242,   1
*Elset, elset=Set-1, generate
  1,  100,   1
** Section: Plate
*Solid Section, elset=Set-1, material=STEEL
,
*End Part
**  
**
** ASSEMBLY
**
*Assembly, name=Assembly
**  
*Instance, name=SquareTube-1, part=SquareTube
*End Instance
**  
*Instance, name=TopPlate-1, part=TopPlate
          0.,           0.,         -10.
*End Instance
**  
*Nset, nset=Set-2, instance=SquareTube-1
1, 2, 5, 6, 9, 11, 13, 15, 17, 19, 21, 23, 25, 27, 421, 423, 425, 427, 429, 431, 433, 435, 437, 439, 441, 443, 
781, 783, 785, 787, 789, 791, 793, 795, 797, 799, 801, 803, 1141, 1143, 1145, 1147, 1149, 1151, 1153, 1155, 1157, 1159
*Nset, nset=Set-3, instance=TopPlate-1, generate
  1,  242,   1
*Elset, elset=Set-3, instance=TopPlate-1, generate
  1,  100,   1
*End Assembly
*Amplitude, name=Amp-1
             0.,              0.,            0.01,              1.
** 
** MATERIALS
** 
*Material, name=Aluminum
*Density
 2.7e-09,
*Elastic
68210., 0.3
*Plastic
 80.,    0.
115., 0.024
139., 0.049
150., 0.074
158., 0.099
167., 0.124
171., 0.149
173., 0.174
*Material, name=STEEL
*Density
 7.8e-09,
*Elastic
210000., 0.3
** 
** INTERACTION PROPERTIES
** 
*Surface Interaction, name=IntProp-1
*Friction
 0.2,
** 
** BOUNDARY CONDITIONS
** 
** Name: BC-1 Type: Symmetry/Antisymmetry/Encastre
*Boundary
Set-2, ENCASTRE
** ----------------------------------------------------------------
** 
** STEP: Crash
** 
*Step, name=Crash, nlgeom=YES
*Dynamic, Explicit
3.0e-07, 0.01
*Bulk Viscosity
0.06, 1.2
** 
** BOUNDARY CONDITIONS
** 
** Name: BC-2 Type: Displacement/Rotation
*Boundary, amplitude=Amp-1
Set-3, 1, 1
Set-3, 2, 2
Set-3, 3, 3, 300.
Set-3, 4, 4
Set-3, 5, 5
Set-3, 6, 6
** 
** INTERACTIONS
** 
** Interaction: Int-1
*Contact, op=NEW
*Contact Inclusions, ALL EXTERIOR, HAKAIoption=self-contact
*Contact Property Assignment
 ,  , IntProp-1
** 
** OUTPUT REQUESTS
** 
*Restart, write, number interval=1, time marks=NO
** 
** FIELD OUTPUT: F-Output-1
** 
*Output, field, variable=PRESELECT
** 
** HISTORY OUTPUT: H-Output-1
** 
*Output, history, variable=PRESELECT
*End Step
