*Heading
** Job name: projectile-impact Model name: Model-1
** Generated by: Abaqus/CAE Learning Edition 2023
** Example for HAKAI-v0.0.0, length unit [M]
*Preprint, echo=NO, model=NO, history=NO, contact=NO
**
** PARTS
**
*Part, name=projectile
*Node
1, -7.071068e-04, -7.071068e-04, 0.000000e+00
2, 6.123234e-20, -1.000000e-03, 0.000000e+00
3, 7.071068e-04, -7.071068e-04, 0.000000e+00
4, -1.000000e-03, -1.224647e-19, 0.000000e+00
5, 0.000000e+00, 0.000000e+00, 0.000000e+00
6, 1.000000e-03, -1.224647e-19, 0.000000e+00
7, -7.071068e-04, 7.071068e-04, 0.000000e+00
8, 6.123234e-20, 1.000000e-03, 0.000000e+00
9, 7.071068e-04, 7.071068e-04, 0.000000e+00
10, -7.071068e-04, -7.071068e-04, 1.000000e-03
11, 6.123234e-20, -1.000000e-03, 1.000000e-03
12, 7.071068e-04, -7.071068e-04, 1.000000e-03
13, -1.000000e-03, -1.224647e-19, 1.000000e-03
14, 0.000000e+00, 0.000000e+00, 1.000000e-03
15, 1.000000e-03, -1.224647e-19, 1.000000e-03
16, -7.071068e-04, 7.071068e-04, 1.000000e-03
17, 6.123234e-20, 1.000000e-03, 1.000000e-03
18, 7.071068e-04, 7.071068e-04, 1.000000e-03
19, -7.071068e-04, -7.071068e-04, 2.000000e-03
20, 6.123234e-20, -1.000000e-03, 2.000000e-03
** ... 79 like lines cut
*Element, type=C3D8R
1, 10, 1, 4, 13, 11, 2, 5, 14
2, 11, 2, 5, 14, 12, 3, 6, 15
3, 13, 4, 7, 16, 14, 5, 8, 17
4, 14, 5, 8, 17, 15, 6, 9, 18
5, 19, 10, 13, 22, 20, 11, 14, 23
6, 20, 11, 14, 23, 21, 12, 15, 24
7, 22, 13, 16, 25, 23, 14, 17, 26
8, 23, 14, 17, 26, 24, 15, 18, 27
9, 28, 19, 22, 31, 29, 20, 23, 32
10, 29, 20, 23, 32, 30, 21, 24, 33
11, 31, 22, 25, 34, 32, 23, 26, 35
12, 32, 23, 26, 35, 33, 24, 27, 36
13, 37, 28, 31, 40, 38, 29, 32, 41
14, 38, 29, 32, 41, 39, 30, 33, 42
15, 40, 31, 34, 43, 41, 32, 35, 44
16, 41, 32, 35, 44, 42, 33, 36, 45
17, 46, 37, 40, 49, 47, 38, 41, 50
18, 47, 38, 41, 50, 48, 39, 42, 51
19, 49, 40, 43, 52, 50, 41, 44, 53
20, 50, 41, 44, 53, 51, 42, 45, 54
** ... 20 like lines cut
*Nset, nset=Set-4, generate
  1,  99,   1
*Elset, elset=Set-4, generate
  1,  40,   1
** Section: 
*Solid Section, elset=Set-4, material=steel
,
*End Part
**  
*Part, name=plate
*Node
1, -5.000000e-03, -5.000000e-03, 0.000000e+00
2, -5.000000e-03, -5.000000e-03, 1.000000e-03
3, -5.000000e-03, -5.000000e-03, 2.000000e-03
4, -5.000000e-03, -5.000000e-03, 3.000000e-03
5, -5.000000e-03, -4.000000e-03, 0.000000e+00
6, -5.000000e-03, -4.000000e-03, 1.000000e-03
7, -5.000000e-03, -4.000000e-03, 2.000000e-03
8, -5.000000e-03, -4.000000e-03, 3.000000e-03
9, -5.000000e-03, -3.000000e-03, 0.000000e+00
10, -5.000000e-03, -3.000000e-03, 1.000000e-03
11, -5.000000e-03, -3.000000e-03, 2.000000e-03
12, -5.000000e-03, -3.000000e-03, 3.000000e-03
13, -5.000000e-03, -2.000000e-03, 0.000000e+00
14, -5.000000e-03, -2.000000e-03, 1.000000e-03
15, -5.000000e-03, -2.000000e-03, 2.000000e-03
16, -5.000000e-03, -2.000000e-03, 3.000000e-03
17, -5.000000e-03, -1.000000e-03, 0.000000e+00
18, -5.000000e-03, -1.000000e-03, 1.000000e-03
19, -5.000000e-03, -1.000000e-03, 2.000000e-03
20, -5.000000e-03, -1.000000e-03, 3.000000e-03
** ... 464 like lines cut
*Element, type=C3D8R
1, 1, 45, 49, 5, 2, 46, 50, 6
2, 2, 46, 50, 6, 3, 47, 51, 7
3, 3, 47, 51, 7, 4, 48, 52, 8
4, 5, 49, 53, 9, 6, 50, 54, 10
5, 6, 50, 54, 10, 7, 51, 55, 11
6, 7, 51, 55, 11, 8, 52, 56, 12
7, 9, 53, 57, 13, 10, 54, 58, 14
8, 10, 54, 58, 14, 11, 55, 59, 15
9, 11, 55, 59, 15, 12, 56, 60, 16
10, 13, 57, 61, 17, 14, 58, 62, 18
11, 14, 58, 62, 18, 15, 59, 63, 19
12, 15, 59, 63, 19, 16, 60, 64, 20
13, 17, 61, 65, 21, 18, 62, 66, 22
14, 18, 62, 66, 22, 19, 63, 67, 23
15, 19, 63, 67, 23, 20, 64, 68, 24
16, 21, 65, 69, 25, 22, 66, 70, 26
17, 22, 66, 70, 26, 23, 67, 71, 27
18, 23, 67, 71, 27, 24, 68, 72, 28
19, 25, 69, 73, 29, 26, 70, 74, 30
20, 26, 70, 74, 30, 27, 71, 75, 31
** ... 280 like lines cut
*Nset, nset=Set-1, generate
   1,  484,    1
*Elset, elset=Set-1, generate
   1,  300,    1
** Section: alu
*Solid Section, elset=Set-1, controls=EC-1, material=steel
,
*End Part
**  
**
** ASSEMBLY
**
*Assembly, name=Assembly
**  
*Instance, name=projectile-1, part=projectile
       -0.0001,    0.0001,       0.0034
       0.0,          0.0,          0.0,         0.01,          0.0,          0.0,        20.0
*End Instance
**  
*Instance, name=plate-1, part=plate
*End Instance
**  
*Nset, nset=Set-1, instance=plate-1
1, 2, 3, 4, 5, 6, 7, 8, 9, 10, 11, 12, 13, 14, 15, 16, 17, 18, 19, 20, 
21, 22, 23, 24, 25, 26, 27, 28, 29, 30, 31, 32, 33, 34, 35, 36, 37, 38, 39, 40, 
41, 42, 43, 44, 45, 46, 47, 48, 85, 86, 87, 88, 89, 90, 91, 92, 129, 130, 131, 132, 
133, 134, 135, 136, 173, 174, 175, 176, 177, 178, 179, 180, 217, 218, 219, 220, 221, 222, 223, 224, 
261, 262, 263, 264, 265, 266, 267, 268, 305, 306, 307, 308, 309, 310, 311, 312, 349, 350, 351, 352, 
353, 354, 355, 356, 393, 394, 395, 396, 397, 398, 399, 400, 437, 438, 439, 440, 441, 442, 443, 444, 
445, 446, 447, 448, 449, 450, 451, 452, 453, 454, 455, 456, 457, 458, 459, 460, 461, 462, 463, 464, 
465, 466, 467, 468, 469, 470, 471, 472, 473, 474, 475, 476, 477, 478, 479, 480, 481, 482, 483, 484
*Nset, nset=Set-2, instance=projectile-1
 97,
*Nset, nset=Set-3, instance=projectile-1
 97,
*End Assembly
** 
** ELEMENT CONTROLS
** 
*Section Controls, name=EC-1, DISTORTION CONTROL=YES
1., 1., 1.
** 
** MATERIALS
** 
*Material, name=steel
*Density
7800.,
*Elastic
2.10E+11,	0.3
*Plastic
8.15E+08,	0.00E+00,	
8.55E+08,	1.00E-02,	
8.88E+08,	2.00E-02,	
9.17E+08,	3.00E-02,	
9.87E+08,	6.00E-02,	
1.06E+09,	1.00E-01,	
1.13E+09,	1.50E-01,	
1.23E+09,	2.50E-01,	
1.33E+09,	4.00E-01,	
1.81E+09,	2.00E+00	
*Damage Initiation, criterion=DUCTILE
2.31E+00,	-3.33,		0.001
2.31E+00,	-0.333,		0.001
2.18E+00,	-0.267,		0.001
2.06E+00,	-0.2,		0.001
1.95E+00,	-0.133,		0.001
1.85E+00,	-0.0667,	0.001
1.76E+00,	0.,		0.001
1.67E+00,	0.0667,		0.001
1.59E+00,	0.133,		0.001
1.52E+00,	0.2,		0.001
1.46E+00,	0.267,		0.001
1.40E+00,	0.333,		0.001
1.35E+00,	0.4,		0.001
1.30E+00,	0.467,		0.001
1.26E+00,	0.533,		0.001
1.23E+00,	0.6,		0.001
1.20E+00,	0.667,		0.001
1.15E+00,	0.730,		0.001
1.06E+00,	0.851,		0.001
9.45E-01,	1.02,		0.001
8.16E-01,	1.24,		0.001
6.85E-01,	1.51,		0.001
2.02E-01,	3.33,		0.001
** 
** INTERACTION PROPERTIES
** 
*Surface Interaction, name=IntProp-1
*Friction
 0.25,
** 
** BOUNDARY CONDITIONS
** 
** Name: BC-1 Type: Symmetry/Antisymmetry/Encastre
*Boundary
Set-1, ENCASTRE
** Name: BC-2 Type: Displacement/Rotation
*Boundary
projectile-1.Set-4, 1, 1
projectile-1.Set-4, 4, 4
projectile-1.Set-4, 5, 5
projectile-1.Set-4, 6, 6
** 
** PREDEFINED FIELDS
** 
** Name: Predefined Field-1   Type: Velocity
*Initial Conditions, type=VELOCITY
projectile-1.Set-4, 3, -1.8794e+03
*Initial Conditions, type=VELOCITY
projectile-1.Set-4, 2, 6.8404e+02
** 
** INTERACTIONS
** 
** Interaction: Int-1
*Contact, op=NEW
*Contact Inclusions, ALL EXTERIOR
*Contact Property Assignment
 ,  , IntProp-1
** ----------------------------------------------------------------
** 
** STEP: Step-1
** 
*Step, name=Step-1, nlgeom=YES
*Dynamic, Explicit
1e-10, 6e-06
*Bulk Viscosity
0.06, 1.2
** 
** OUTPUT REQUESTS
** 
*Restart, write, number interval=1, time marks=NO
** 
** FIELD OUTPUT: F-Output-1
** 
*Output, field
*Node Output
A, RF, U, V
*Element Output, directions=YES
EVF, LE, PE, PEEQ, PEEQVAVG, PEVAVG, S, STATUS, SVAVG
*Contact Output
CSTRESS, 
** 
** HISTORY OUTPUT: H-Output-1
** 
*Output, history, variable=PRESELECT
*End Step
