*Heading
** Generated by: 
**
** PARTS
**
*Part, name=Car_front
*Node
1,   4.302431e+01,   3.355110e+02,   -2.551240e+02
2,   4.329460e+01,   3.522342e+02,   -2.535685e+02
3,   4.765464e+01,   3.478119e+02,   -2.323863e+02
4,   4.745143e+01,   3.285261e+02,   -2.333332e+02
5,   4.400957e+01,   3.355416e+02,   -2.552922e+02
6,   4.427883e+01,   3.522328e+02,   -2.537454e+02
7,   4.863442e+01,   3.478130e+02,   -2.325863e+02
8,   4.843296e+01,   3.285622e+02,   -2.335211e+02
9,   4.356437e+01,   3.689415e+02,   -2.520175e+02
10,   4.785725e+01,   3.670801e+02,   -2.314441e+02
11,   4.454862e+01,   3.689399e+02,   -2.521942e+02
12,   4.883647e+01,   3.670814e+02,   -2.316468e+02
13,   5.214766e+01,   3.652216e+02,   -2.108835e+02
14,   5.201252e+01,   3.433923e+02,   -2.112152e+02
15,   5.312680e+01,   3.652199e+02,   -2.110866e+02
16,   5.299215e+01,   3.433905e+02,   -2.114160e+02
17,   5.187667e+01,   3.215434e+02,   -2.115524e+02
18,   5.285823e+01,   3.215806e+02,   -2.117400e+02
19,   4.383413e+01,   3.856488e+02,   -2.504664e+02
20,   4.805988e+01,   3.863482e+02,   -2.305018e+02
** ... 21526 like lines cut
*Element, type=C3D8R
1, 1, 2, 3, 4, 5, 6, 7, 8
2, 2, 9, 10, 3, 6, 11, 12, 7
3, 3, 10, 13, 14, 7, 12, 15, 16
4, 4, 3, 14, 17, 8, 7, 16, 18
5, 9, 19, 20, 10, 11, 21, 22, 12
6, 19, 23, 24, 20, 21, 25, 26, 22
7, 20, 24, 27, 28, 22, 26, 29, 30
8, 10, 20, 28, 13, 12, 22, 30, 15
9, 13, 28, 31, 32, 15, 30, 33, 34
10, 28, 27, 35, 31, 30, 29, 36, 33
11, 31, 35, 37, 38, 33, 36, 39, 40
12, 32, 31, 38, 41, 34, 33, 40, 42
13, 17, 14, 43, 44, 18, 16, 45, 46
14, 14, 13, 32, 43, 16, 15, 34, 45
15, 43, 32, 41, 47, 45, 34, 42, 48
16, 44, 43, 47, 49, 46, 45, 48, 50
17, 51, 52, 53, 54, 55, 56, 57, 58
18, 52, 59, 60, 53, 56, 61, 62, 57
19, 53, 60, 63, 64, 57, 62, 65, 66
20, 54, 53, 64, 67, 58, 57, 66, 68
** ... 10572 like lines cut
*Nset, nset=Set-1, generate
   1,  21546,    1
*Elset, elset=Set-1, generate
   1,  10592,    1
** Section: Section-1
*Solid Section, elset=Set-1, controls=EC-1, material=aluminum
*End Part
**  
*Part, name=wall
*Node
1, -1.000000e+03, -7.500000e+02, 0.000000e+00
2, -1.000000e+03, -7.500000e+02, 1.000000e+02
3, -1.000000e+03, -6.500000e+02, 0.000000e+00
4, -1.000000e+03, -6.500000e+02, 1.000000e+02
5, -1.000000e+03, -5.500000e+02, 0.000000e+00
6, -1.000000e+03, -5.500000e+02, 1.000000e+02
7, -1.000000e+03, -4.500000e+02, 0.000000e+00
8, -1.000000e+03, -4.500000e+02, 1.000000e+02
9, -1.000000e+03, -3.500000e+02, 0.000000e+00
10, -1.000000e+03, -3.500000e+02, 1.000000e+02
11, -1.000000e+03, -2.500000e+02, 0.000000e+00
12, -1.000000e+03, -2.500000e+02, 1.000000e+02
13, -1.000000e+03, -1.500000e+02, 0.000000e+00
14, -1.000000e+03, -1.500000e+02, 1.000000e+02
15, -1.000000e+03, -5.000000e+01, 0.000000e+00
16, -1.000000e+03, -5.000000e+01, 1.000000e+02
17, -1.000000e+03, 5.000000e+01, 0.000000e+00
18, -1.000000e+03, 5.000000e+01, 1.000000e+02
19, -1.000000e+03, 1.500000e+02, 0.000000e+00
20, -1.000000e+03, 1.500000e+02, 1.000000e+02
** ... 652 like lines cut
*Element, type=C3D8R
1, 1, 33, 35, 3, 2, 34, 36, 4
2, 3, 35, 37, 5, 4, 36, 38, 6
3, 5, 37, 39, 7, 6, 38, 40, 8
4, 7, 39, 41, 9, 8, 40, 42, 10
5, 9, 41, 43, 11, 10, 42, 44, 12
6, 11, 43, 45, 13, 12, 44, 46, 14
7, 13, 45, 47, 15, 14, 46, 48, 16
8, 15, 47, 49, 17, 16, 48, 50, 18
9, 17, 49, 51, 19, 18, 50, 52, 20
10, 19, 51, 53, 21, 20, 52, 54, 22
11, 21, 53, 55, 23, 22, 54, 56, 24
12, 23, 55, 57, 25, 24, 56, 58, 26
13, 25, 57, 59, 27, 26, 58, 60, 28
14, 27, 59, 61, 29, 28, 60, 62, 30
15, 29, 61, 63, 31, 30, 62, 64, 32
16, 33, 65, 67, 35, 34, 66, 68, 36
17, 35, 67, 69, 37, 36, 68, 70, 38
18, 37, 69, 71, 39, 38, 70, 72, 40
19, 39, 71, 73, 41, 40, 72, 74, 42
20, 41, 73, 75, 43, 42, 74, 76, 44
** ... 280 like lines cut
*Nset, nset=Set-1, generate
   1,  672,    1
*Elset, elset=Set-1, generate
   1,  300,    1
** Section: 
*Solid Section, elset=Set-1, controls=EC-1, material=steel
,
*End Part
**
** ASSEMBLY
**
*Assembly, name=Assembly
**  
*Instance, name=Car_front-1, part=Car_front
*End Instance
*Instance, name=wall-1, part=wall
       900.0,    750.0,       0.0
*End Instance
**  
*Nset, nset=Set-3, instance=wall-1
1, 2, 33, 34, 65, 66, 97, 98, 129, 130, 161, 162, 193, 194, 225, 226, 257, 258, 289, 290, 
321, 322, 353, 354, 385, 386, 417, 418, 449, 450, 481, 482, 513, 514, 545, 546, 577, 578, 
609, 610, 641, 642
**  
*End Assembly
** 
** MATERIALS
** 
*Material, name=aluminum
*Density
 2.5e-09,
*Elastic
70000., 0.3
*Plastic
250, 0.0
300, 0.1
*Material, name=steel
*Density
 7.8e-09,
*Elastic
210000., 0.3
** 
** BOUNDARY CONDITIONS
** 
** Name: BC-1 Type: Symmetry/Antisymmetry/Encastre
*Boundary
Set-3, ENCASTRE
** 
** PREDEFINED FIELDS
** 
** Name: Predefined Field-1   Type: Velocity
*Initial Conditions, type=VELOCITY
Car_front-1.Set-1, 3, 1.4e4
** 
** INTERACTIONS
** 
** Interaction: Int-1
*Contact, op=NEW
*Contact Inclusions, ALL EXTERIOR, HAKAIoption=self-contact
**  , HAKAIoption=self-contact
*Contact Property Assignment
 ,  , IntProp-1
** ----------------------------------------------------------------
** 
** STEP: Step-1
** 
*Step, name=Step-1, nlgeom=YES
*Dynamic, Explicit
1.0e-07, 0.2
*Bulk Viscosity
0.06, 1.2
** Mass Scaling: Semi-Automatic
**               Whole Model
*Fixed Mass Scaling, factor=60.
** 
** OUTPUT REQUESTS
** 
*Restart, write, number interval=1, time marks=NO
** 
** FIELD OUTPUT: F-Output-1
** 
*Output, field, variable=PRESELECT
** 
** HISTORY OUTPUT: H-Output-1
** 
*Output, history, variable=PRESELECT
*End Step
