*Heading
** Generated by: 
**
** PARTS
**
*Part, name=Car_front
*Node
1,   4.302411e+01,   3.355092e+02,   -2.551255e+02
2,   4.410494e+01,   4.023812e+02,   -2.489135e+02
3,   6.086041e+01,   4.155242e+02,   -1.713160e+02
4,   6.086094e+01,   3.075254e+02,   -1.677417e+02
5,   4.400978e+01,   3.355434e+02,   -2.552907e+02
6,   4.508716e+01,   4.023290e+02,   -2.490938e+02
7,   6.157550e+01,   4.152837e+02,   -1.719723e+02
8,   6.157497e+01,   3.076699e+02,   -1.684268e+02
9,   1.414658e+01,   3.236755e+02,   -5.284918e+02
10,   2.411862e+01,   2.334404e+02,   -5.164111e+02
11,   2.146945e+01,   2.359706e+02,   -5.747418e+02
12,   8.972524e+00,   3.594791e+02,   -6.258994e+02
13,   1.514247e+01,   3.237494e+02,   -5.285442e+02
14,   2.509829e+01,   2.336347e+02,   -5.164609e+02
15,   2.244822e+01,   2.361744e+02,   -5.747636e+02
16,   9.971201e+00,   3.595232e+02,   -6.259258e+02
17,   6.403073e+00,   4.502059e+02,   -7.246987e+02
18,   8.861762e+00,   4.868125e+02,   -6.324904e+02
19,   9.715160e+00,   4.371743e+02,   -5.567893e+02
20,   7.400000e+00,   4.501276e+02,   -7.246974e+02
** ... 1396 like lines cut
*Element, type=C3D8R
1, 1, 2, 3, 4, 5, 6, 7, 8
2, 9, 10, 11, 12, 13, 14, 15, 16
3, 12, 17, 18, 19, 16, 20, 21, 22
4, 23, 24, 25, 26, 27, 28, 29, 30
5, 31, 25, 24, 32, 33, 29, 28, 34
6, 35, 23, 26, 36, 37, 27, 30, 38
7, 39, 40, 41, 42, 43, 44, 45, 46
8, 47, 48, 49, 50, 51, 52, 53, 54
9, 55, 56, 57, 58, 59, 60, 61, 62
10, 58, 63, 19, 64, 62, 65, 22, 66
11, 9, 12, 19, 63, 13, 16, 22, 65
12, 67, 57, 2, 1, 68, 61, 6, 5
13, 69, 63, 67, 70, 71, 65, 68, 72
14, 63, 58, 57, 67, 65, 62, 61, 68
15, 9, 63, 69, 10, 13, 65, 71, 14
16, 69, 70, 73, 74, 71, 72, 75, 76
17, 74, 77, 10, 69, 76, 78, 14, 71
18, 11, 10, 77, 79, 15, 14, 78, 80
19, 25, 17, 81, 26, 29, 20, 82, 30
20, 83, 84, 85, 50, 86, 87, 88, 54
** ... 642 like lines cut
*Nset, nset=Set-1, generate
   1,  1416,    1
*Elset, elset=Set-1, generate
   1,  662,    1
** Section: Section-1
*Solid Section, elset=Set-1, controls=EC-1, material=aluminum
*End Part
**  
*Part, name=wall
*Node
1, -1.000000e+03, -7.500000e+02, 0.000000e+00
2, -1.000000e+03, -7.500000e+02, 1.000000e+02
3, -1.000000e+03, -6.500000e+02, 0.000000e+00
4, -1.000000e+03, -6.500000e+02, 1.000000e+02
5, -1.000000e+03, -5.500000e+02, 0.000000e+00
6, -1.000000e+03, -5.500000e+02, 1.000000e+02
7, -1.000000e+03, -4.500000e+02, 0.000000e+00
8, -1.000000e+03, -4.500000e+02, 1.000000e+02
9, -1.000000e+03, -3.500000e+02, 0.000000e+00
10, -1.000000e+03, -3.500000e+02, 1.000000e+02
11, -1.000000e+03, -2.500000e+02, 0.000000e+00
12, -1.000000e+03, -2.500000e+02, 1.000000e+02
13, -1.000000e+03, -1.500000e+02, 0.000000e+00
14, -1.000000e+03, -1.500000e+02, 1.000000e+02
15, -1.000000e+03, -5.000000e+01, 0.000000e+00
16, -1.000000e+03, -5.000000e+01, 1.000000e+02
17, -1.000000e+03, 5.000000e+01, 0.000000e+00
18, -1.000000e+03, 5.000000e+01, 1.000000e+02
19, -1.000000e+03, 1.500000e+02, 0.000000e+00
20, -1.000000e+03, 1.500000e+02, 1.000000e+02
** ... 652 like lines cut
*Element, type=C3D8R
1, 1, 33, 35, 3, 2, 34, 36, 4
2, 3, 35, 37, 5, 4, 36, 38, 6
3, 5, 37, 39, 7, 6, 38, 40, 8
4, 7, 39, 41, 9, 8, 40, 42, 10
5, 9, 41, 43, 11, 10, 42, 44, 12
6, 11, 43, 45, 13, 12, 44, 46, 14
7, 13, 45, 47, 15, 14, 46, 48, 16
8, 15, 47, 49, 17, 16, 48, 50, 18
9, 17, 49, 51, 19, 18, 50, 52, 20
10, 19, 51, 53, 21, 20, 52, 54, 22
11, 21, 53, 55, 23, 22, 54, 56, 24
12, 23, 55, 57, 25, 24, 56, 58, 26
13, 25, 57, 59, 27, 26, 58, 60, 28
14, 27, 59, 61, 29, 28, 60, 62, 30
15, 29, 61, 63, 31, 30, 62, 64, 32
16, 33, 65, 67, 35, 34, 66, 68, 36
17, 35, 67, 69, 37, 36, 68, 70, 38
18, 37, 69, 71, 39, 38, 70, 72, 40
19, 39, 71, 73, 41, 40, 72, 74, 42
20, 41, 73, 75, 43, 42, 74, 76, 44
** ... 280 like lines cut
*Nset, nset=Set-1, generate
   1,  672,    1
*Elset, elset=Set-1, generate
   1,  300,    1
** Section: 
*Solid Section, elset=Set-1, controls=EC-1, material=steel
,
*End Part
**
** ASSEMBLY
**
*Assembly, name=Assembly
**  
*Instance, name=Car_front-1, part=Car_front
*End Instance
*Instance, name=wall-1, part=wall
       900.0,    750.0,       0.0
*End Instance
**  
*Nset, nset=Set-3, instance=wall-1
1, 2, 33, 34, 65, 66, 97, 98, 129, 130, 161, 162, 193, 194, 225, 226, 257, 258, 289, 290, 
321, 322, 353, 354, 385, 386, 417, 418, 449, 450, 481, 482, 513, 514, 545, 546, 577, 578, 
609, 610, 641, 642
**  
*End Assembly
** 
** MATERIALS
** 
*Material, name=aluminum
*Density
 2.5e-09,
*Elastic
70000., 0.3
*Plastic
250, 0.0
300, 0.1
*Material, name=steel
*Density
 7.8e-09,
*Elastic
210000., 0.3
** 
** BOUNDARY CONDITIONS
** 
** Name: BC-1 Type: Symmetry/Antisymmetry/Encastre
*Boundary
Set-3, ENCASTRE
** 
** PREDEFINED FIELDS
** 
** Name: Predefined Field-1   Type: Velocity
*Initial Conditions, type=VELOCITY
Car_front-1.Set-1, 3, 1.4e4
** 
** INTERACTIONS
** 
** Interaction: Int-1
*Contact, op=NEW
*Contact Inclusions, ALL EXTERIOR, HAKAIoption=self-contact
*Contact Property Assignment
 ,  , IntProp-1
** ----------------------------------------------------------------
** 
** STEP: Step-1
** 
*Step, name=Step-1, nlgeom=YES
*Dynamic, Explicit
1.0e-07, 0.2
*Bulk Viscosity
0.06, 1.2
** Mass Scaling: Semi-Automatic
**               Whole Model
*Fixed Mass Scaling, factor=100.
** 
** OUTPUT REQUESTS
** 
*Restart, write, number interval=1, time marks=NO
** 
** FIELD OUTPUT: F-Output-1
** 
*Output, field, variable=PRESELECT
** 
** HISTORY OUTPUT: H-Output-1
** 
*Output, history, variable=PRESELECT
*End Step
