*Heading
** Generated by: 
**
** PARTS
**
*Part, name=Car_front
*Node
1,   4.302424e+01,   3.355103e+02,   -2.551245e+02
2,   4.356442e+01,   3.689423e+02,   -2.520172e+02
3,   5.214751e+01,   3.652208e+02,   -2.108842e+02
4,   5.187665e+01,   3.215426e+02,   -2.115527e+02
5,   4.400964e+01,   3.355423e+02,   -2.552917e+02
6,   4.454857e+01,   3.689391e+02,   -2.521945e+02
7,   5.312695e+01,   3.652207e+02,   -2.110859e+02
8,   5.285825e+01,   3.215814e+02,   -2.117397e+02
9,   4.410484e+01,   4.023781e+02,   -2.489131e+02
10,   5.241787e+01,   4.089141e+02,   -2.102262e+02
11,   4.508726e+01,   4.023321e+02,   -2.490941e+02
12,   5.339614e+01,   4.088449e+02,   -2.104216e+02
13,   6.086540e+01,   4.155267e+02,   -1.713116e+02
14,   6.086958e+01,   3.615115e+02,   -1.695058e+02
15,   6.157052e+01,   4.152811e+02,   -1.719768e+02
16,   6.156634e+01,   3.614901e+02,   -1.702227e+02
17,   6.086282e+01,   3.075261e+02,   -1.677397e+02
18,   6.157310e+01,   3.076693e+02,   -1.684289e+02
19,   1.414657e+01,   3.236756e+02,   -5.284918e+02
20,   1.912983e+01,   2.785737e+02,   -5.224505e+02
** ... 5458 like lines cut
*Element, type=C3D8R
1, 1, 2, 3, 4, 5, 6, 7, 8
2, 2, 9, 10, 3, 6, 11, 12, 7
3, 3, 10, 13, 14, 7, 12, 15, 16
4, 4, 3, 14, 17, 8, 7, 16, 18
5, 19, 20, 21, 22, 23, 24, 25, 26
6, 20, 27, 28, 21, 24, 29, 30, 25
7, 21, 28, 31, 32, 25, 30, 33, 34
8, 22, 21, 32, 35, 26, 25, 34, 36
9, 35, 37, 38, 39, 36, 40, 41, 42
10, 37, 43, 44, 38, 40, 45, 46, 41
11, 38, 44, 47, 48, 41, 46, 49, 50
12, 39, 38, 48, 51, 42, 41, 50, 52
13, 53, 54, 55, 56, 57, 58, 59, 60
14, 54, 61, 62, 55, 58, 63, 64, 59
15, 55, 62, 65, 66, 59, 64, 67, 68
16, 56, 55, 66, 69, 60, 59, 68, 70
17, 71, 72, 73, 74, 75, 76, 77, 78
18, 72, 65, 62, 73, 76, 67, 64, 77
19, 73, 62, 61, 79, 77, 64, 63, 80
20, 74, 73, 79, 81, 78, 77, 80, 82
** ... 2628 like lines cut
*Nset, nset=Set-1, generate
   1,  5478,    1
*Elset, elset=Set-1, generate
   1,  2648,    1
** Section: Section-1
*Solid Section, elset=Set-1, controls=EC-1, material=aluminum
*End Part
**  
*Part, name=pillar
*Node
1, 0.000000e+00, 0.000000e+00, 0.000000e+00
2, 0.000000e+00, 0.000000e+00, 1.000000e+02
3, 0.000000e+00, 0.000000e+00, 2.000000e+02
4, 0.000000e+00, 0.000000e+00, 3.000000e+02
5, 0.000000e+00, 0.000000e+00, 4.000000e+02
6, 0.000000e+00, 0.000000e+00, 5.000000e+02
7, 0.000000e+00, 1.000000e+02, 0.000000e+00
8, 0.000000e+00, 1.000000e+02, 1.000000e+02
9, 0.000000e+00, 1.000000e+02, 2.000000e+02
10, 0.000000e+00, 1.000000e+02, 3.000000e+02
11, 0.000000e+00, 1.000000e+02, 4.000000e+02
12, 0.000000e+00, 1.000000e+02, 5.000000e+02
13, 0.000000e+00, 2.000000e+02, 0.000000e+00
14, 0.000000e+00, 2.000000e+02, 1.000000e+02
15, 0.000000e+00, 2.000000e+02, 2.000000e+02
16, 0.000000e+00, 2.000000e+02, 3.000000e+02
17, 0.000000e+00, 2.000000e+02, 4.000000e+02
18, 0.000000e+00, 2.000000e+02, 5.000000e+02
19, 0.000000e+00, 3.000000e+02, 0.000000e+00
20, 0.000000e+00, 3.000000e+02, 1.000000e+02
** ... 376 like lines cut
*Element, type=C3D8R
1, 1, 67, 73, 7, 2, 68, 74, 8
2, 2, 68, 74, 8, 3, 69, 75, 9
3, 3, 69, 75, 9, 4, 70, 76, 10
4, 4, 70, 76, 10, 5, 71, 77, 11
5, 5, 71, 77, 11, 6, 72, 78, 12
6, 7, 73, 79, 13, 8, 74, 80, 14
7, 8, 74, 80, 14, 9, 75, 81, 15
8, 9, 75, 81, 15, 10, 76, 82, 16
9, 10, 76, 82, 16, 11, 77, 83, 17
10, 11, 77, 83, 17, 12, 78, 84, 18
11, 13, 79, 85, 19, 14, 80, 86, 20
12, 14, 80, 86, 20, 15, 81, 87, 21
13, 15, 81, 87, 21, 16, 82, 88, 22
14, 16, 82, 88, 22, 17, 83, 89, 23
15, 17, 83, 89, 23, 18, 84, 90, 24
16, 19, 85, 91, 25, 20, 86, 92, 26
17, 20, 86, 92, 26, 21, 87, 93, 27
18, 21, 87, 93, 27, 22, 88, 94, 28
19, 22, 88, 94, 28, 23, 89, 95, 29
20, 23, 89, 95, 29, 24, 90, 96, 30
** ... 230 like lines cut
*Nset, nset=Set-1, generate
   1,  396,    1
*Elset, elset=Set-1, generate
   1,  250,    1
** Section: 
*Solid Section, elset=Set-1, controls=EC-1, material=steel
,
*End Part
**
** ASSEMBLY
**
*Assembly, name=Assembly
**  
*Instance, name=Car_front-1, part=Car_front
*End Instance
*Instance, name=pillar-1, part=pillar
       300.0,    0.0,       -30.0
*End Instance
**  
*Nset, nset=Set-3, instance=pillar-1
1, 2, 3, 4, 5, 6, 67, 68, 69, 70, 71, 72, 
133, 134, 135, 136, 137, 138, 199, 200, 201, 202, 203, 204, 265, 266, 267, 268, 269, 270, 
331, 332, 333, 334, 335, 336
**  
*End Assembly
** 
** MATERIALS
** 
*Material, name=aluminum
*Density
 2.5e-09,
*Elastic
70000., 0.3
*Plastic
250, 0.0
300, 0.1
*Material, name=steel
*Density
 7.8e-09,
*Elastic
210000., 0.3
** 
** BOUNDARY CONDITIONS
** 
** Name: BC-1 Type: Symmetry/Antisymmetry/Encastre
*Boundary
Set-3, ENCASTRE
** 
** PREDEFINED FIELDS
** 
** Name: Predefined Field-1   Type: Velocity
*Initial Conditions, type=VELOCITY
Car_front-1.Set-1, 3, 1.4e4
** 
** INTERACTIONS
** 
** Interaction: Int-1
*Contact, op=NEW
*Contact Inclusions, ALL EXTERIOR
*Contact Property Assignment
 ,  , IntProp-1
** ----------------------------------------------------------------
** 
** STEP: Step-1
** 
*Step, name=Step-1, nlgeom=YES
*Dynamic, Explicit
1.0e-07, 0.2
*Bulk Viscosity
0.06, 1.2
** Mass Scaling: Semi-Automatic
**               Whole Model
*Fixed Mass Scaling, factor=60.
** 
** OUTPUT REQUESTS
** 
*Restart, write, number interval=1, time marks=NO
** 
** FIELD OUTPUT: F-Output-1
** 
*Output, field, variable=PRESELECT
** 
** HISTORY OUTPUT: H-Output-1
** 
*Output, history, variable=PRESELECT
*End Step
